REMARK  Name = Calcium Phosphate
REMARK  0 active torsions:
REMARK  status: ('A' for Active; 'I' for Inactive)
REMARK                            x       y       z     vdW  Elec       q    Type
REMARK                         _______ _______ _______ _____ _____    ______ ____
ROOT
ATOM      1 CA   UNL     1       1.600  -1.943   2.819  0.00  0.00    +0.000 Ca
ENDROOT
TORSDOF 0
REMARK  Name = Calcium Phosphate
REMARK  0 active torsions:
REMARK  status: ('A' for Active; 'I' for Inactive)
REMARK                            x       y       z     vdW  Elec       q    Type
REMARK                         _______ _______ _______ _____ _____    ______ ____
ROOT
ATOM      1 CA   UNL     1       0.649   2.599   1.169  0.00  0.00    +0.000 Ca
ENDROOT
TORSDOF 0
REMARK  Name = Calcium Phosphate
REMARK  0 active torsions:
REMARK  status: ('A' for Active; 'I' for Inactive)
REMARK                            x       y       z     vdW  Elec       q    Type
REMARK                         _______ _______ _______ _____ _____    ______ ____
ROOT
ATOM      1 CA   UNL     1       0.359  -0.133  -3.255  0.00  0.00    +0.000 Ca
ENDROOT
TORSDOF 0
REMARK  Name = Calcium Phosphate
REMARK  0 active torsions:
REMARK  status: ('A' for Active; 'I' for Inactive)
REMARK                            x       y       z     vdW  Elec       q    Type
REMARK                         _______ _______ _______ _____ _____    ______ ____
ROOT
ATOM      1  O   UNL     1       0.777  -1.868  -0.921  0.00  0.00    +0.000 OA
ATOM      2  P   UNL     1       1.986  -1.064  -0.537  0.00  0.00    +0.000 P 
ATOM      3  O   UNL     1       1.976  -0.064  -1.712  0.00  0.00    +0.000 OA
ATOM      4  O   UNL     1       1.446  -0.530   0.847  0.00  0.00    +0.000 OA
ATOM      5  O   UNL     1       3.279  -1.848  -0.349  0.00  0.00    +0.000 OA
ENDROOT
TORSDOF 0
REMARK  Name = Calcium Phosphate
REMARK  0 active torsions:
REMARK  status: ('A' for Active; 'I' for Inactive)
REMARK                            x       y       z     vdW  Elec       q    Type
REMARK                         _______ _______ _______ _____ _____    ______ ____
ROOT
ATOM      1  O   UNL     1       2.321   1.522   0.109  0.00  0.00    +0.000 OA
ATOM      2  P   UNL     1       3.683   1.292   0.882  0.00  0.00    +0.000 P 
ATOM      3  O   UNL     1       3.399   2.418   1.848  0.00  0.00    +0.000 OA
ATOM      4  O   UNL     1       3.581  -0.037   1.670  0.00  0.00    +0.000 OA
ATOM      5  O   UNL     1       4.802   1.322  -0.143  0.00  0.00    +0.000 OA
ENDROOT
TORSDOF 0
