REMARK  Name = Calcitriol
REMARK  13 active torsions:
REMARK  status: ('A' for Active; 'I' for Inactive)
REMARK    1  A    between atoms: C_1  and  C_2
REMARK    2  A    between atoms: C_2  and  C_3
REMARK    3  A    between atoms: C_2  and  C_10
REMARK    4  A    between atoms: C_3  and  C_4
REMARK    5  A    between atoms: C_4  and  C_5
REMARK    6  A    between atoms: C_5  and  C_6
REMARK    7  A    between atoms: C_6  and  C_7
REMARK    8  A    between atoms: C_6  and  C_8
REMARK    9  A    between atoms: C_6  and  O_9
REMARK   10  A    between atoms: C_20  and  C_21
REMARK   11  A    between atoms: C_22  and  C_23
REMARK   12  A    between atoms: C_26  and  O_27
REMARK   13  A    between atoms: C_29  and  O_30
REMARK                            x       y       z     vdW  Elec       q    Type
REMARK                         _______ _______ _______ _____ _____    ______ ____
ROOT
ATOM      1  C   UNL     1       3.013  -0.713   1.233  0.00  0.00    +0.000 C 
ATOM      2  C   UNL     1       2.346  -0.282   2.568  0.00  0.00    +0.000 C 
ATOM      3  C   UNL     1       1.895  -1.570   3.262  0.00  0.00    +0.000 C 
ATOM      4  C   UNL     1       2.753  -2.649   2.598  0.00  0.00    +0.000 C 
ATOM      5  C   UNL     1       2.418  -4.104   2.649  0.00  0.00    +0.000 C 
ATOM      6  C   UNL     1       3.366  -4.922   1.787  0.00  0.00    +0.000 C 
ATOM      7  C   UNL     1       3.605  -4.489   0.362  0.00  0.00    +0.000 C 
ATOM      8  C   UNL     1       3.882  -2.991   0.343  0.00  0.00    +0.000 C 
ATOM      9  C   UNL     1       2.769  -2.242   1.122  0.00  0.00    +0.000 C 
ATOM     10  C   UNL     1       1.440  -2.661   0.470  0.00  0.00    +0.000 C 
ATOM     11  C   UNL     1       1.426  -4.635   3.406  0.00  0.00    +0.000 C 
ENDROOT
BRANCH  11  12
ATOM     12  C   UNL     1       1.253  -6.039   3.686  0.00  0.00    +0.000 C 
ATOM     13  C   UNL     1       2.217  -6.930   4.029  0.00  0.00    +0.000 C 
ATOM     14  C   UNL     1       1.840  -8.304   4.521  0.00  0.00    +0.000 C 
ATOM     15  C   UNL     1       2.580  -9.439   3.802  0.00  0.00    +0.000 C 
ATOM     16  C   UNL     1       4.083  -9.188   3.676  0.00  0.00    +0.000 C 
ATOM     17  C   UNL     1       4.365  -7.814   3.091  0.00  0.00    +0.000 C 
ATOM     18  C   UNL     1       3.680  -6.748   3.949  0.00  0.00    +0.000 C 
ATOM     19  C   UNL     1       4.332  -5.679   4.450  0.00  0.00    +0.000 C 
BRANCH  15  20
ATOM     20  O   UNL     1       2.004  -9.676   2.516  0.00  0.00    +0.000 OA
ATOM     21  H   UNL     1       2.026  -8.848   2.004  0.00  0.00    +0.000 HD
ENDBRANCH  15  20
BRANCH  17  22
ATOM     22  O   UNL     1       5.772  -7.613   2.989  0.00  0.00    +0.000 OA
ATOM     23  H   UNL     1       6.111  -7.512   3.893  0.00  0.00    +0.000 HD
ENDBRANCH  17  22
ENDBRANCH  11  12
BRANCH   1  25
ATOM     24  C   UNL     1       3.153   1.530   0.082  0.00  0.00    +0.000 C 
ATOM     25  C   UNL     1       2.563   0.122   0.016  0.00  0.00    +0.000 C 
BRANCH  25  26
ATOM     26  C   UNL     1       1.029   0.259  -0.090  0.00  0.00    +0.000 C 
BRANCH  26  27
ATOM     27  C   UNL     1       0.504  -0.369  -1.361  0.00  0.00    +0.000 C 
BRANCH  27  28
ATOM     28  C   UNL     1      -1.000  -0.595  -1.298  0.00  0.00    +0.000 C 
BRANCH  28  29
ATOM     29  C   UNL     1      -1.483  -1.412  -2.507  0.00  0.00    +0.000 C 
ATOM     30  C   UNL     1      -1.019  -0.747  -3.804  0.00  0.00    +0.000 C 
ATOM     31  C   UNL     1      -1.010  -2.872  -2.460  0.00  0.00    +0.000 C 
BRANCH  29  32
ATOM     32  O   UNL     1      -2.911  -1.432  -2.481  0.00  0.00    +0.000 OA
ATOM     33  H   UNL     1      -3.219  -0.510  -2.472  0.00  0.00    +0.000 HD
ENDBRANCH  29  32
ENDBRANCH  28  29
ENDBRANCH  27  28
ENDBRANCH  26  27
ENDBRANCH  25  26
ENDBRANCH   1  25
TORSDOF 9
