REMARK  Name = Calcium glucoheptonate
REMARK  24 active torsions:
REMARK  status: ('A' for Active; 'I' for Inactive)
REMARK    1  A    between atoms: O_2  and  C_3
REMARK    2  A    between atoms: C_3  and  C_4
REMARK    3  A    between atoms: C_4  and  O_5
REMARK    4  A    between atoms: C_4  and  C_6
REMARK    5  A    between atoms: C_6  and  O_7
REMARK    6  A    between atoms: C_6  and  C_8
REMARK    7  A    between atoms: C_8  and  O_9
REMARK    8  A    between atoms: C_8  and  C_10
REMARK    9  A    between atoms: C_10  and  O_11
REMARK   10  A    between atoms: C_10  and  C_12
REMARK   11  A    between atoms: C_12  and  O_13
REMARK   12  A    between atoms: C_12  and  C_14
REMARK   13  A    between atoms: O_17  and  C_18
REMARK   14  A    between atoms: C_18  and  C_19
REMARK   15  A    between atoms: C_19  and  O_20
REMARK   16  A    between atoms: C_19  and  C_21
REMARK   17  A    between atoms: C_21  and  O_22
REMARK   18  A    between atoms: C_21  and  C_23
REMARK   19  A    between atoms: C_23  and  O_24
REMARK   20  A    between atoms: C_23  and  C_25
REMARK   21  A    between atoms: C_25  and  O_26
REMARK   22  A    between atoms: C_25  and  C_27
REMARK   23  A    between atoms: C_27  and  O_28
REMARK   24  A    between atoms: C_27  and  C_29
REMARK                            x       y       z     vdW  Elec       q    Type
REMARK                         _______ _______ _______ _____ _____    ______ ____
ROOT
ATOM      1 CA   UNL     1       1.324  -0.203   0.013  0.00  0.00    +0.000 Ca
ENDROOT
TORSDOF 0
REMARK  Name = Calcium glucoheptonate
REMARK  24 active torsions:
REMARK  status: ('A' for Active; 'I' for Inactive)
REMARK    1  A    between atoms: O_2  and  C_3
REMARK    2  A    between atoms: C_3  and  C_4
REMARK    3  A    between atoms: C_4  and  O_5
REMARK    4  A    between atoms: C_4  and  C_6
REMARK    5  A    between atoms: C_6  and  O_7
REMARK    6  A    between atoms: C_6  and  C_8
REMARK    7  A    between atoms: C_8  and  O_9
REMARK    8  A    between atoms: C_8  and  C_10
REMARK    9  A    between atoms: C_10  and  O_11
REMARK   10  A    between atoms: C_10  and  C_12
REMARK   11  A    between atoms: C_12  and  O_13
REMARK   12  A    between atoms: C_12  and  C_14
REMARK   13  A    between atoms: O_17  and  C_18
REMARK   14  A    between atoms: C_18  and  C_19
REMARK   15  A    between atoms: C_19  and  O_20
REMARK   16  A    between atoms: C_19  and  C_21
REMARK   17  A    between atoms: C_21  and  O_22
REMARK   18  A    between atoms: C_21  and  C_23
REMARK   19  A    between atoms: C_23  and  O_24
REMARK   20  A    between atoms: C_23  and  C_25
REMARK   21  A    between atoms: C_25  and  O_26
REMARK   22  A    between atoms: C_25  and  C_27
REMARK   23  A    between atoms: C_27  and  O_28
REMARK   24  A    between atoms: C_27  and  C_29
REMARK                            x       y       z     vdW  Elec       q    Type
REMARK                         _______ _______ _______ _____ _____    ______ ____
ROOT
ATOM      1  C   UNL     2       4.805  -2.915  -0.685  0.00  0.00    +0.000 C 
ENDROOT
BRANCH   1   2
ATOM      2  O   UNL     2       4.150  -1.600  -0.377  0.00  0.00    +0.000 OA
ATOM      3  H   UNL     2       4.941  -1.014  -0.358  0.00  0.00    +0.000 HD
ENDBRANCH   1   2
BRANCH   1   4
ATOM      4  C   UNL     2       4.349  -3.282  -2.103  0.00  0.00    +0.000 C 
BRANCH   4   5
ATOM      5  O   UNL     2       2.910  -3.035  -2.120  0.00  0.00    +0.000 OA
ATOM      6  H   UNL     2       2.857  -2.080  -2.106  0.00  0.00    +0.000 HD
ENDBRANCH   4   5
BRANCH   4   7
ATOM      7  C   UNL     2       5.078  -2.477  -3.250  0.00  0.00    +0.000 C 
BRANCH   7   8
ATOM      8  O   UNL     2       6.460  -2.803  -3.429  0.00  0.00    +0.000 OA
ATOM      9  H   UNL     2       7.073  -2.287  -2.868  0.00  0.00    +0.000 HD
ENDBRANCH   7   8
BRANCH   7  10
ATOM     10  C   UNL     2       4.906  -0.954  -3.099  0.00  0.00    +0.000 C 
BRANCH  10  11
ATOM     11  O   UNL     2       5.379  -0.225  -4.212  0.00  0.00    +0.000 OA
ATOM     12  H   UNL     2       5.577   0.682  -3.916  0.00  0.00    +0.000 HD
ENDBRANCH  10  11
ENDBRANCH   7  10
ENDBRANCH   4   7
ENDBRANCH   1   4
BRANCH   1  13
ATOM     13  C   UNL     2       6.340  -2.898  -0.453  0.00  0.00    +0.000 C 
BRANCH  13  14
ATOM     14  O   UNL     2       6.448  -2.468   0.921  0.00  0.00    +0.000 OA
ATOM     15  H   UNL     2       6.810  -3.219   1.432  0.00  0.00    +0.000 HD
ENDBRANCH  13  14
BRANCH  13  16
ATOM     16  C   UNL     2       7.012  -4.268  -0.790  0.00  0.00    +0.000 C 
BRANCH  16  17
ATOM     17  C   UNL     2       8.563  -4.240  -0.917  0.00  0.00    +0.000 C 
ATOM     18  O   UNL     2       9.064  -3.070  -0.868  0.00  0.00    +0.000 OA
ATOM     19  O   UNL     2       9.102  -5.345  -1.126  0.00  0.00    +0.000 OA
ENDBRANCH  16  17
BRANCH  16  20
ATOM     20  O   UNL     2       6.494  -4.830  -2.020  0.00  0.00    +0.000 OA
ATOM     21  H   UNL     2       6.983  -4.402  -2.765  0.00  0.00    +0.000 HD
ENDBRANCH  16  20
ENDBRANCH  13  16
ENDBRANCH   1  13
TORSDOF 12
REMARK  Name = Calcium glucoheptonate
REMARK  24 active torsions:
REMARK  status: ('A' for Active; 'I' for Inactive)
REMARK    1  A    between atoms: O_2  and  C_3
REMARK    2  A    between atoms: C_3  and  C_4
REMARK    3  A    between atoms: C_4  and  O_5
REMARK    4  A    between atoms: C_4  and  C_6
REMARK    5  A    between atoms: C_6  and  O_7
REMARK    6  A    between atoms: C_6  and  C_8
REMARK    7  A    between atoms: C_8  and  O_9
REMARK    8  A    between atoms: C_8  and  C_10
REMARK    9  A    between atoms: C_10  and  O_11
REMARK   10  A    between atoms: C_10  and  C_12
REMARK   11  A    between atoms: C_12  and  O_13
REMARK   12  A    between atoms: C_12  and  C_14
REMARK   13  A    between atoms: O_17  and  C_18
REMARK   14  A    between atoms: C_18  and  C_19
REMARK   15  A    between atoms: C_19  and  O_20
REMARK   16  A    between atoms: C_19  and  C_21
REMARK   17  A    between atoms: C_21  and  O_22
REMARK   18  A    between atoms: C_21  and  C_23
REMARK   19  A    between atoms: C_23  and  O_24
REMARK   20  A    between atoms: C_23  and  C_25
REMARK   21  A    between atoms: C_25  and  O_26
REMARK   22  A    between atoms: C_25  and  C_27
REMARK   23  A    between atoms: C_27  and  O_28
REMARK   24  A    between atoms: C_27  and  C_29
REMARK                            x       y       z     vdW  Elec       q    Type
REMARK                         _______ _______ _______ _____ _____    ______ ____
ROOT
ATOM      1  C   UNL     3       4.998   2.207   1.912  0.00  0.00    +0.000 C 
ENDROOT
BRANCH   1   2
ATOM      2  O   UNL     3       4.463   1.302   0.872  0.00  0.00    +0.000 OA
ATOM      3  H   UNL     3       5.264   0.743   0.715  0.00  0.00    +0.000 HD
ENDBRANCH   1   2
BRANCH   1   4
ATOM      4  C   UNL     3       4.399   1.777   3.271  0.00  0.00    +0.000 C 
BRANCH   4   5
ATOM      5  O   UNL     3       3.039   2.256   3.392  0.00  0.00    +0.000 OA
ATOM      6  H   UNL     3       2.567   2.077   2.581  0.00  0.00    +0.000 HD
ENDBRANCH   4   5
BRANCH   4   7
ATOM      7  C   UNL     3       4.440   0.247   3.533  0.00  0.00    +0.000 C 
BRANCH   7   8
ATOM      8  O   UNL     3       5.748  -0.294   3.428  0.00  0.00    +0.000 OA
ATOM      9  H   UNL     3       6.070  -0.420   2.519  0.00  0.00    +0.000 HD
ENDBRANCH   7   8
BRANCH   7  10
ATOM     10  C   UNL     3       3.416  -0.500   2.662  0.00  0.00    +0.000 C 
BRANCH  10  11
ATOM     11  O   UNL     3       3.225  -1.870   2.936  0.00  0.00    +0.000 OA
ATOM     12  H   UNL     3       3.276  -2.391   2.116  0.00  0.00    +0.000 HD
ENDBRANCH  10  11
ENDBRANCH   7  10
ENDBRANCH   4   7
ENDBRANCH   1   4
BRANCH   1  13
ATOM     13  C   UNL     3       6.551   2.236   1.811  0.00  0.00    +0.000 C 
BRANCH  13  14
ATOM     14  O   UNL     3       6.756   2.459   0.399  0.00  0.00    +0.000 OA
ATOM     15  H   UNL     3       6.951   3.405   0.279  0.00  0.00    +0.000 HD
ENDBRANCH  13  14
BRANCH  13  16
ATOM     16  C   UNL     3       7.192   3.269   2.755  0.00  0.00    +0.000 C 
BRANCH  16  17
ATOM     17  C   UNL     3       8.745   3.258   2.761  0.00  0.00    +0.000 C 
ATOM     18  O   UNL     3       9.277   2.342   2.059  0.00  0.00    +0.000 OA
ATOM     19  O   UNL     3       9.276   4.126   3.486  0.00  0.00    +0.000 OA
ENDBRANCH  16  17
BRANCH  16  20
ATOM     20  O   UNL     3       6.751   3.014   4.107  0.00  0.00    +0.000 OA
ATOM     21  H   UNL     3       7.251   2.230   4.415  0.00  0.00    +0.000 HD
ENDBRANCH  16  20
ENDBRANCH  13  16
ENDBRANCH   1  13
TORSDOF 12
