REMARK  Name = Calcium undecylenate
REMARK  18 active torsions:
REMARK  status: ('A' for Active; 'I' for Inactive)
REMARK    1  A    between atoms: C_3  and  C_5
REMARK    2  A    between atoms: C_5  and  C_6
REMARK    3  A    between atoms: C_6  and  C_7
REMARK    4  A    between atoms: C_7  and  C_8
REMARK    5  A    between atoms: C_8  and  C_9
REMARK    6  A    between atoms: C_9  and  C_10
REMARK    7  A    between atoms: C_10  and  C_11
REMARK    8  A    between atoms: C_11  and  C_12
REMARK    9  A    between atoms: C_12  and  C_13
REMARK   10  A    between atoms: C_16  and  C_18
REMARK   11  A    between atoms: C_18  and  C_19
REMARK   12  A    between atoms: C_19  and  C_20
REMARK   13  A    between atoms: C_20  and  C_21
REMARK   14  A    between atoms: C_21  and  C_22
REMARK   15  A    between atoms: C_22  and  C_23
REMARK   16  A    between atoms: C_23  and  C_24
REMARK   17  A    between atoms: C_24  and  C_25
REMARK   18  A    between atoms: C_25  and  C_26
REMARK                            x       y       z     vdW  Elec       q    Type
REMARK                         _______ _______ _______ _____ _____    ______ ____
ROOT
ATOM      1 CA   UNL     1      -0.058   0.486   0.340  0.00  0.00    +0.000 Ca
ENDROOT
TORSDOF 0
REMARK  Name = Calcium undecylenate
REMARK  18 active torsions:
REMARK  status: ('A' for Active; 'I' for Inactive)
REMARK    1  A    between atoms: C_3  and  C_5
REMARK    2  A    between atoms: C_5  and  C_6
REMARK    3  A    between atoms: C_6  and  C_7
REMARK    4  A    between atoms: C_7  and  C_8
REMARK    5  A    between atoms: C_8  and  C_9
REMARK    6  A    between atoms: C_9  and  C_10
REMARK    7  A    between atoms: C_10  and  C_11
REMARK    8  A    between atoms: C_11  and  C_12
REMARK    9  A    between atoms: C_12  and  C_13
REMARK   10  A    between atoms: C_16  and  C_18
REMARK   11  A    between atoms: C_18  and  C_19
REMARK   12  A    between atoms: C_19  and  C_20
REMARK   13  A    between atoms: C_20  and  C_21
REMARK   14  A    between atoms: C_21  and  C_22
REMARK   15  A    between atoms: C_22  and  C_23
REMARK   16  A    between atoms: C_23  and  C_24
REMARK   17  A    between atoms: C_24  and  C_25
REMARK   18  A    between atoms: C_25  and  C_26
REMARK                            x       y       z     vdW  Elec       q    Type
REMARK                         _______ _______ _______ _____ _____    ______ ____
ROOT
ATOM      1  C   UNL     2       7.040   1.713  -1.661  0.00  0.00    +0.000 C 
ENDROOT
BRANCH   1   2
ATOM      2  C   UNL     2       5.659   2.122  -2.056  0.00  0.00    +0.000 C 
BRANCH   2   3
ATOM      3  C   UNL     2       4.799   1.207  -1.335  0.00  0.00    +0.000 C 
BRANCH   3   4
ATOM      4  C   UNL     2       3.409   1.635  -1.636  0.00  0.00    +0.000 C 
BRANCH   4   6
ATOM      5  O   UNL     2       1.476   0.639  -0.962  0.00  0.00    +0.000 OA
ATOM      6  C   UNL     2       2.687   0.946  -0.594  0.00  0.00    +0.000 C 
ATOM      7  O   UNL     2       3.196   0.924   0.512  0.00  0.00    +0.000 OA
ENDBRANCH   4   6
ENDBRANCH   3   4
ENDBRANCH   2   3
ENDBRANCH   1   2
BRANCH   1   8
ATOM      8  C   UNL     2       7.847   2.577  -2.540  0.00  0.00    +0.000 C 
BRANCH   8   9
ATOM      9  C   UNL     2       9.285   2.295  -2.294  0.00  0.00    +0.000 C 
BRANCH   9  10
ATOM     10  C   UNL     2      10.021   3.221  -3.221  0.00  0.00    +0.000 C 
BRANCH  10  11
ATOM     11  C   UNL     2      11.500   3.021  -3.027  0.00  0.00    +0.000 C 
BRANCH  11  12
ATOM     12  C   UNL     2      12.255   3.935  -3.929  0.00  0.00    +0.000 C 
ATOM     13  C   UNL     2      13.589   3.950  -3.943  0.00  0.00    +0.000 C 
ENDBRANCH  11  12
ENDBRANCH  10  11
ENDBRANCH   9  10
ENDBRANCH   8   9
ENDBRANCH   1   8
TORSDOF 9
REMARK  Name = Calcium undecylenate
REMARK  18 active torsions:
REMARK  status: ('A' for Active; 'I' for Inactive)
REMARK    1  A    between atoms: C_3  and  C_5
REMARK    2  A    between atoms: C_5  and  C_6
REMARK    3  A    between atoms: C_6  and  C_7
REMARK    4  A    between atoms: C_7  and  C_8
REMARK    5  A    between atoms: C_8  and  C_9
REMARK    6  A    between atoms: C_9  and  C_10
REMARK    7  A    between atoms: C_10  and  C_11
REMARK    8  A    between atoms: C_11  and  C_12
REMARK    9  A    between atoms: C_12  and  C_13
REMARK   10  A    between atoms: C_16  and  C_18
REMARK   11  A    between atoms: C_18  and  C_19
REMARK   12  A    between atoms: C_19  and  C_20
REMARK   13  A    between atoms: C_20  and  C_21
REMARK   14  A    between atoms: C_21  and  C_22
REMARK   15  A    between atoms: C_22  and  C_23
REMARK   16  A    between atoms: C_23  and  C_24
REMARK   17  A    between atoms: C_24  and  C_25
REMARK   18  A    between atoms: C_25  and  C_26
REMARK                            x       y       z     vdW  Elec       q    Type
REMARK                         _______ _______ _______ _____ _____    ______ ____
ROOT
ATOM      1  C   UNL     3       6.811  -2.099  -0.820  0.00  0.00    +0.000 C 
ENDROOT
BRANCH   1   2
ATOM      2  C   UNL     3       5.314  -2.493  -0.871  0.00  0.00    +0.000 C 
BRANCH   2   3
ATOM      3  C   UNL     3       4.485  -1.644   0.131  0.00  0.00    +0.000 C 
BRANCH   3   4
ATOM      4  C   UNL     3       2.906  -1.767   0.152  0.00  0.00    +0.000 C 
BRANCH   4   6
ATOM      5  O   UNL     3       0.498  -1.630   0.713  0.00  0.00    +0.000 OA
ATOM      6  C   UNL     3       1.663  -1.201   1.083  0.00  0.00    +0.000 C 
ATOM      7  O   UNL     3       1.557  -0.129   1.759  0.00  0.00    +0.000 OA
ENDBRANCH   4   6
ENDBRANCH   3   4
ENDBRANCH   2   3
ENDBRANCH   1   2
BRANCH   1   8
ATOM      8  C   UNL     3       7.661  -3.190  -1.438  0.00  0.00    +0.000 C 
BRANCH   8   9
ATOM      9  C   UNL     3       9.146  -2.884  -1.318  0.00  0.00    +0.000 C 
BRANCH   9  10
ATOM     10  C   UNL     3       9.923  -4.056  -1.897  0.00  0.00    +0.000 C 
BRANCH  10  11
ATOM     11  C   UNL     3      11.418  -3.815  -1.779  0.00  0.00    +0.000 C 
BRANCH  11  12
ATOM     12  C   UNL     3      12.189  -4.968  -2.342  0.00  0.00    +0.000 C 
ATOM     13  C   UNL     3      13.525  -4.989  -2.352  0.00  0.00    +0.000 C 
ENDBRANCH  11  12
ENDBRANCH  10  11
ENDBRANCH   9  10
ENDBRANCH   8   9
ENDBRANCH   1   8
TORSDOF 9
