REMARK  Name = Calcipotriol
REMARK  10 active torsions:
REMARK  status: ('A' for Active; 'I' for Inactive)
REMARK    1  A    between atoms: O_1  and  C_2
REMARK    2  A    between atoms: C_2  and  C_3
REMARK    3  A    between atoms: C_2  and  C_30
REMARK    4  A    between atoms: C_4  and  C_5
REMARK    5  A    between atoms: C_5  and  C_6
REMARK    6  A    between atoms: C_5  and  C_7
REMARK    7  A    between atoms: C_17  and  C_18
REMARK    8  A    between atoms: C_19  and  C_20
REMARK    9  A    between atoms: C_23  and  O_24
REMARK   10  A    between atoms: C_26  and  O_27
REMARK                            x       y       z     vdW  Elec       q    Type
REMARK                         _______ _______ _______ _____ _____    ______ ____
ROOT
ATOM      1  C   UNL     1      -1.741  -1.352  -2.276  0.00  0.00    +0.000 C 
ATOM      2  C   UNL     1      -1.025  -2.710  -2.551  0.00  0.00    +0.000 C 
ATOM      3  C   UNL     1      -2.107  -3.730  -2.928  0.00  0.00    +0.000 C 
ATOM      4  C   UNL     1      -3.340  -2.863  -3.167  0.00  0.00    +0.000 C 
ATOM      5  C   UNL     1      -4.741  -3.414  -3.173  0.00  0.00    +0.000 C 
ATOM      6  C   UNL     1      -5.747  -2.306  -3.372  0.00  0.00    +0.000 C 
ATOM      7  C   UNL     1      -5.651  -1.126  -2.455  0.00  0.00    +0.000 C 
ATOM      8  C   UNL     1      -4.227  -0.619  -2.442  0.00  0.00    +0.000 C 
ATOM      9  C   UNL     1      -3.226  -1.747  -2.103  0.00  0.00    +0.000 C 
ATOM     10  C   UNL     1      -3.515  -2.295  -0.681  0.00  0.00    +0.000 C 
ATOM     11  C   UNL     1      -5.061  -4.708  -3.096  0.00  0.00    +0.000 C 
ENDROOT
BRANCH  11  12
ATOM     12  C   UNL     1      -6.361  -5.326  -3.290  0.00  0.00    +0.000 C 
ATOM     13  C   UNL     1      -7.322  -5.086  -4.210  0.00  0.00    +0.000 C 
ATOM     14  C   UNL     1      -8.401  -6.128  -4.423  0.00  0.00    +0.000 C 
ATOM     15  C   UNL     1      -9.823  -5.563  -4.437  0.00  0.00    +0.000 C 
ATOM     16  C   UNL     1      -9.956  -4.322  -5.317  0.00  0.00    +0.000 C 
ATOM     17  C   UNL     1      -8.890  -3.287  -4.980  0.00  0.00    +0.000 C 
ATOM     18  C   UNL     1      -7.505  -3.927  -5.103  0.00  0.00    +0.000 C 
ATOM     19  C   UNL     1      -6.539  -3.412  -5.883  0.00  0.00    +0.000 C 
BRANCH  15  20
ATOM     20  O   UNL     1     -10.259  -5.280  -3.108  0.00  0.00    +0.000 OA
ATOM     21  H   UNL     1      -9.625  -4.666  -2.697  0.00  0.00    +0.000 HD
ENDBRANCH  15  20
BRANCH  17  22
ATOM     22  O   UNL     1      -9.049  -2.161  -5.841  0.00  0.00    +0.000 OA
ATOM     23  H   UNL     1      -8.811  -2.450  -6.737  0.00  0.00    +0.000 HD
ENDBRANCH  17  22
ENDBRANCH  11  12
BRANCH   1  24
ATOM     24  C   UNL     1      -1.162  -0.537  -1.099  0.00  0.00    +0.000 C 
ATOM     25  C   UNL     1      -1.680   0.905  -1.084  0.00  0.00    +0.000 C 
BRANCH  24  27
ATOM     26  C   UNL     1       1.046   0.033  -0.117  0.00  0.00    +0.000 C 
ATOM     27  C   UNL     1       0.333  -0.519  -1.116  0.00  0.00    +0.000 C 
BRANCH  26  28
ATOM     28  C   UNL     1       2.526   0.005  -0.085  0.00  0.00    +0.000 C 
BRANCH  28  29
ATOM     29  C   UNL     1       3.046  -0.775   1.078  0.00  0.00    +0.000 C 
ATOM     30  C   UNL     1       3.104  -2.281   1.003  0.00  0.00    +0.000 C 
ATOM     31  C   UNL     1       4.375  -1.473   0.991  0.00  0.00    +0.000 C 
ENDBRANCH  28  29
BRANCH  28  32
ATOM     32  O   UNL     1       2.962   1.350   0.025  0.00  0.00    +0.000 OA
ATOM     33  H   UNL     1       3.931   1.318  -0.001  0.00  0.00    +0.000 HD
ENDBRANCH  28  32
ENDBRANCH  26  28
ENDBRANCH  24  27
ENDBRANCH   1  24
TORSDOF 8
