REMARK  Name = Calcium gluconate
REMARK  20 active torsions:
REMARK  status: ('A' for Active; 'I' for Inactive)
REMARK    1  A    between atoms: C_3  and  O_4
REMARK    2  A    between atoms: C_3  and  C_5
REMARK    3  A    between atoms: C_3  and  C_7
REMARK    4  A    between atoms: C_5  and  O_6
REMARK    5  A    between atoms: C_7  and  O_9
REMARK    6  A    between atoms: C_7  and  C_10
REMARK    7  A    between atoms: C_10  and  O_12
REMARK    8  A    between atoms: C_10  and  C_13
REMARK    9  A    between atoms: C_13  and  O_15
REMARK   10  A    between atoms: C_13  and  C_16
REMARK   11  A    between atoms: C_20  and  O_21
REMARK   12  A    between atoms: C_20  and  C_22
REMARK   13  A    between atoms: C_20  and  C_24
REMARK   14  A    between atoms: C_22  and  O_23
REMARK   15  A    between atoms: C_24  and  O_26
REMARK   16  A    between atoms: C_24  and  C_27
REMARK   17  A    between atoms: C_27  and  O_29
REMARK   18  A    between atoms: C_27  and  C_30
REMARK   19  A    between atoms: C_30  and  O_32
REMARK   20  A    between atoms: C_30  and  C_33
REMARK                            x       y       z     vdW  Elec       q    Type
REMARK                         _______ _______ _______ _____ _____    ______ ____
ROOT
ATOM      1 CA   UNL     1       0.081  -0.779   0.055  0.00  0.00    +0.000 Ca
ENDROOT
TORSDOF 0
REMARK  Name = Calcium gluconate
REMARK  20 active torsions:
REMARK  status: ('A' for Active; 'I' for Inactive)
REMARK    1  A    between atoms: C_3  and  O_4
REMARK    2  A    between atoms: C_3  and  C_5
REMARK    3  A    between atoms: C_3  and  C_7
REMARK    4  A    between atoms: C_5  and  O_6
REMARK    5  A    between atoms: C_7  and  O_9
REMARK    6  A    between atoms: C_7  and  C_10
REMARK    7  A    between atoms: C_10  and  O_12
REMARK    8  A    between atoms: C_10  and  C_13
REMARK    9  A    between atoms: C_13  and  O_15
REMARK   10  A    between atoms: C_13  and  C_16
REMARK   11  A    between atoms: C_20  and  O_21
REMARK   12  A    between atoms: C_20  and  C_22
REMARK   13  A    between atoms: C_20  and  C_24
REMARK   14  A    between atoms: C_22  and  O_23
REMARK   15  A    between atoms: C_24  and  O_26
REMARK   16  A    between atoms: C_24  and  C_27
REMARK   17  A    between atoms: C_27  and  O_29
REMARK   18  A    between atoms: C_27  and  C_30
REMARK   19  A    between atoms: C_30  and  O_32
REMARK   20  A    between atoms: C_30  and  C_33
REMARK                            x       y       z     vdW  Elec       q    Type
REMARK                         _______ _______ _______ _____ _____    ______ ____
ROOT
ATOM      1  C   UNL     2       4.226   2.228  -0.782  0.00  0.00    +0.000 C 
ENDROOT
BRANCH   1   2
ATOM      2  O   UNL     2       5.953   2.315  -0.341  0.00  0.00    +0.000 OA
ATOM      3  H   UNL     2       6.463   3.056  -0.025  0.00  0.00    +0.000 HD
ENDBRANCH   1   2
BRANCH   1   4
ATOM      4  C   UNL     2       3.329   1.519   0.198  0.00  0.00    +0.000 C 
BRANCH   4   5
ATOM      5  O   UNL     2       3.795  -0.021   1.469  0.00  0.00    +0.000 OA
ATOM      6  H   UNL     2       4.234   0.328   2.361  0.00  0.00    +0.000 HD
ENDBRANCH   4   5
BRANCH   4   7
ATOM      7  C   UNL     2       1.736   1.473  -0.029  0.00  0.00    +0.000 C 
BRANCH   7   8
ATOM      8  O   UNL     2       0.713   1.259   1.077  0.00  0.00    +0.000 OA
ATOM      9  H   UNL     2       1.109   1.207   2.017  0.00  0.00    +0.000 HD
ENDBRANCH   7   8
ENDBRANCH   4   7
ENDBRANCH   1   4
BRANCH   1  10
ATOM     10  C   UNL     2       3.490   0.639  -1.503  0.00  0.00    +0.000 C 
BRANCH  10  11
ATOM     11  O   UNL     2       3.689  -0.509  -0.233  0.00  0.00    +0.000 OA
ATOM     12  H   UNL     2       4.712  -1.080   0.029  0.00  0.00    +0.000 HD
ENDBRANCH  10  11
BRANCH  10  13
ATOM     13  C   UNL     2       4.263   0.300  -3.075  0.00  0.00    +0.000 C 
BRANCH  13  14
ATOM     14  C   UNL     2       6.212   0.187  -3.468  0.00  0.00    +0.000 C 
ATOM     15  O   UNL     2       7.114   0.208  -2.519  0.00  0.00    +0.000 OA
ATOM     16  O   UNL     2       6.472   0.230  -4.701  0.00  0.00    +0.000 OA
ENDBRANCH  13  14
BRANCH  13  17
ATOM     17  O   UNL     2       3.721   1.311  -3.913  0.00  0.00    +0.000 OA
ATOM     18  H   UNL     2       2.781   1.148  -3.892  0.00  0.00    +0.000 HD
ENDBRANCH  13  17
ENDBRANCH  10  13
ENDBRANCH   1  10
TORSDOF 10
REMARK  Name = Calcium gluconate
REMARK  20 active torsions:
REMARK  status: ('A' for Active; 'I' for Inactive)
REMARK    1  A    between atoms: C_3  and  O_4
REMARK    2  A    between atoms: C_3  and  C_5
REMARK    3  A    between atoms: C_3  and  C_7
REMARK    4  A    between atoms: C_5  and  O_6
REMARK    5  A    between atoms: C_7  and  O_9
REMARK    6  A    between atoms: C_7  and  C_10
REMARK    7  A    between atoms: C_10  and  O_12
REMARK    8  A    between atoms: C_10  and  C_13
REMARK    9  A    between atoms: C_13  and  O_15
REMARK   10  A    between atoms: C_13  and  C_16
REMARK   11  A    between atoms: C_20  and  O_21
REMARK   12  A    between atoms: C_20  and  C_22
REMARK   13  A    between atoms: C_20  and  C_24
REMARK   14  A    between atoms: C_22  and  O_23
REMARK   15  A    between atoms: C_24  and  O_26
REMARK   16  A    between atoms: C_24  and  C_27
REMARK   17  A    between atoms: C_27  and  O_29
REMARK   18  A    between atoms: C_27  and  C_30
REMARK   19  A    between atoms: C_30  and  O_32
REMARK   20  A    between atoms: C_30  and  C_33
REMARK                            x       y       z     vdW  Elec       q    Type
REMARK                         _______ _______ _______ _____ _____    ______ ____
ROOT
ATOM      1  C   UNL     3       5.445   0.342  -0.911  0.00  0.00    +0.000 C 
ENDROOT
BRANCH   1   2
ATOM      2  O   UNL     3       5.856   1.709  -2.106  0.00  0.00    +0.000 OA
ATOM      3  H   UNL     3       6.725   1.804  -1.700  0.00  0.00    +0.000 HD
ENDBRANCH   1   2
BRANCH   1   4
ATOM      4  C   UNL     3       5.097   1.124   0.983  0.00  0.00    +0.000 C 
BRANCH   4   5
ATOM      5  O   UNL     3       6.043   0.280   1.644  0.00  0.00    +0.000 OA
ATOM      6  H   UNL     3       5.686   0.026   2.475  0.00  0.00    +0.000 HD
ENDBRANCH   4   5
BRANCH   4   7
ATOM      7  C   UNL     3       3.190   1.561   2.038  0.00  0.00    +0.000 C 
BRANCH   7   8
ATOM      8  O   UNL     3       2.921   1.431   3.340  0.00  0.00    +0.000 OA
ATOM      9  H   UNL     3       2.857   0.467   3.417  0.00  0.00    +0.000 HD
ENDBRANCH   7   8
ENDBRANCH   4   7
ENDBRANCH   1   4
BRANCH   1  10
ATOM     10  C   UNL     3       4.512  -1.424  -1.600  0.00  0.00    +0.000 C 
BRANCH  10  11
ATOM     11  O   UNL     3       4.232  -2.481  -0.262  0.00  0.00    +0.000 OA
ATOM     12  H   UNL     3       4.317  -3.443  -0.318  0.00  0.00    +0.000 HD
ENDBRANCH  10  11
BRANCH  10  13
ATOM     13  C   UNL     3       4.841  -2.085  -2.930  0.00  0.00    +0.000 C 
BRANCH  13  14
ATOM     14  C   UNL     3       6.370  -2.172  -2.547  0.00  0.00    +0.000 C 
ATOM     15  O   UNL     3       6.667  -2.067  -1.304  0.00  0.00    +0.000 OA
ATOM     16  O   UNL     3       7.086  -2.499  -3.524  0.00  0.00    +0.000 OA
ENDBRANCH  13  14
BRANCH  13  17
ATOM     17  O   UNL     3       4.306  -1.579  -4.389  0.00  0.00    +0.000 OA
ATOM     18  H   UNL     3       3.656  -0.827  -4.551  0.00  0.00    +0.000 HD
ENDBRANCH  13  17
ENDBRANCH  10  13
ENDBRANCH   1  10
TORSDOF 10
