REMARK  Name = Calcium phosphate dihydrate
REMARK  1 active torsions:
REMARK  status: ('A' for Active; 'I' for Inactive)
REMARK    1  A    between atoms: O_4  and  P_5
REMARK                            x       y       z     vdW  Elec       q    Type
REMARK                         _______ _______ _______ _____ _____    ______ ____
ROOT
ATOM      1  O   HOH     1       0.564  -2.406   0.520  0.00  0.00    +0.000 OA
ATOM      2  H   HOH     0       1.361  -2.377  -0.072  0.00  0.00    +0.000 HD
ATOM      3  H   HOH     0       0.261  -1.515   0.238  0.00  0.00    +0.000 HD
ENDROOT
TORSDOF 0
REMARK  Name = Calcium phosphate dihydrate
REMARK  1 active torsions:
REMARK  status: ('A' for Active; 'I' for Inactive)
REMARK    1  A    between atoms: O_4  and  P_5
REMARK                            x       y       z     vdW  Elec       q    Type
REMARK                         _______ _______ _______ _____ _____    ______ ____
ROOT
ATOM      1  O   HOH     2       0.756   0.307  -2.467  0.00  0.00    +0.000 OA
ATOM      2  H   HOH     0      -0.018  -0.076  -2.091  0.00  0.00    +0.000 HD
ATOM      3  H   HOH     0       1.456  -0.395  -2.195  0.00  0.00    +0.000 HD
ENDROOT
TORSDOF 0
REMARK  Name = Calcium phosphate dihydrate
REMARK  1 active torsions:
REMARK  status: ('A' for Active; 'I' for Inactive)
REMARK    1  A    between atoms: O_4  and  P_5
REMARK                            x       y       z     vdW  Elec       q    Type
REMARK                         _______ _______ _______ _____ _____    ______ ____
ROOT
ATOM      1 CA   UNL     3       1.772   1.811   1.870  0.00  0.00    +0.000 Ca
ENDROOT
TORSDOF 0
REMARK  Name = Calcium phosphate dihydrate
REMARK  1 active torsions:
REMARK  status: ('A' for Active; 'I' for Inactive)
REMARK    1  A    between atoms: O_4  and  P_5
REMARK                            x       y       z     vdW  Elec       q    Type
REMARK                         _______ _______ _______ _____ _____    ______ ____
ROOT
ATOM      1  P   UNL     4       2.687  -0.088  -0.021  0.00  0.00    +0.000 P 
ATOM      2  O   UNL     4       2.375  -1.021  -1.164  0.00  0.00    +0.000 OA
ATOM      3  O   UNL     4       2.389   1.410   0.114  0.00  0.00    +0.000 OA
ATOM      4  O   UNL     4       4.235  -0.088  -0.021  0.00  0.00    +0.000 OA
ENDROOT
BRANCH   1   5
ATOM      5  O   UNL     4       0.957  -0.088  -0.021  0.00  0.00    +0.000 OA
ATOM      6  H   UNL     4       0.945   0.564  -0.778  0.00  0.00    +0.000 HD
ENDBRANCH   1   5
TORSDOF 1
