REMARK  Name = Calcium glubionate anhydrous
REMARK  30 active torsions:
REMARK  status: ('A' for Active; 'I' for Inactive)
REMARK    1  A    between atoms: O_1  and  C_2
REMARK    2  A    between atoms: C_2  and  C_3
REMARK    3  A    between atoms: C_3  and  O_4
REMARK    4  A    between atoms: C_3  and  C_5
REMARK    5  A    between atoms: C_5  and  O_6
REMARK    6  A    between atoms: C_5  and  C_7
REMARK    7  A    between atoms: C_7  and  O_8
REMARK    8  A    between atoms: C_7  and  C_9
REMARK    9  A    between atoms: C_9  and  O_10
REMARK   10  A    between atoms: C_9  and  C_11
REMARK   11  A    between atoms: C_11  and  O_13
REMARK   12  A    between atoms: O_13  and  CA_14
REMARK   13  A    between atoms: CA_14  and  O_15
REMARK   14  A    between atoms: O_15  and  C_16
REMARK   15  A    between atoms: C_16  and  C_18
REMARK   16  A    between atoms: C_18  and  O_19
REMARK   17  A    between atoms: C_18  and  C_20
REMARK   18  A    between atoms: C_20  and  O_21
REMARK   19  A    between atoms: C_20  and  C_22
REMARK   20  A    between atoms: C_22  and  O_23
REMARK   21  A    between atoms: C_22  and  C_35
REMARK   22  A    between atoms: O_23  and  C_24
REMARK   23  A    between atoms: C_26  and  C_27
REMARK   24  A    between atoms: C_27  and  O_28
REMARK   25  A    between atoms: C_29  and  O_30
REMARK   26  A    between atoms: C_31  and  O_32
REMARK   27  A    between atoms: C_33  and  O_34
REMARK   28  A    between atoms: C_35  and  O_36
REMARK   29  A    between atoms: C_35  and  C_37
REMARK   30  A    between atoms: C_37  and  O_38
REMARK                            x       y       z     vdW  Elec       q    Type
REMARK                         _______ _______ _______ _____ _____    ______ ____
ROOT
ATOM      1  C   UNL     1      18.701   9.302   3.818  0.00  0.00    +0.000 C 
ENDROOT
BRANCH   1   2
ATOM      2  O   UNL     1      18.324  10.169   2.759  0.00  0.00    +0.000 OA
ATOM      3  H   UNL     1      17.497   9.854   2.362  0.00  0.00    +0.000 HD
ENDBRANCH   1   2
BRANCH   1   4
ATOM      4  C   UNL     1      17.632   9.325   4.898  0.00  0.00    +0.000 C 
BRANCH   4   5
ATOM      5  O   UNL     1      16.396   8.892   4.350  0.00  0.00    +0.000 OA
ATOM      6  H   UNL     1      16.491   7.989   4.009  0.00  0.00    +0.000 HD
ENDBRANCH   4   5
BRANCH   4   7
ATOM      7  C   UNL     1      18.036   8.397   6.032  0.00  0.00    +0.000 C 
ATOM      8  O   UNL     1      17.778   8.400   7.276  0.00  0.00    +0.000 OA
BRANCH   7   9
ATOM      9  O   UNL     1      18.684   7.278   5.444  0.00  0.00    +0.000 OA
BRANCH   9  10
ATOM     10 CA   UNL     1      19.297   5.378   6.813  0.00  0.00    +0.000 Ca
BRANCH  10  11
ATOM     11  O   UNL     1      19.910   3.479   8.181  0.00  0.00    +0.000 OA
BRANCH  11  12
ATOM     12  C   UNL     1      20.707   2.439   7.635  0.00  0.00    +0.000 C 
ATOM     13  O   UNL     1      21.100   2.505   6.428  0.00  0.00    +0.000 OA
BRANCH  12  14
ATOM     14  C   UNL     1      21.092   1.246   8.495  0.00  0.00    +0.000 C 
BRANCH  14  15
ATOM     15  O   UNL     1      21.834   1.692   9.620  0.00  0.00    +0.000 OA
ATOM     16  H   UNL     1      22.637   2.146   9.319  0.00  0.00    +0.000 HD
ENDBRANCH  14  15
BRANCH  14  17
ATOM     17  C   UNL     1      21.941   0.285   7.678  0.00  0.00    +0.000 C 
BRANCH  17  18
ATOM     18  O   UNL     1      22.300  -0.830   8.481  0.00  0.00    +0.000 OA
ATOM     19  H   UNL     1      21.498  -1.283   8.782  0.00  0.00    +0.000 HD
ENDBRANCH  17  18
BRANCH  17  20
ATOM     20  C   UNL     1      21.147  -0.194   6.473  0.00  0.00    +0.000 C 
BRANCH  20  21
ATOM     21  O   UNL     1      20.220  -1.229   6.767  0.00  0.00    +0.000 OA
ATOM     22  H   UNL     1      19.622  -0.937   7.472  0.00  0.00    +0.000 HD
ENDBRANCH  20  21
BRANCH  20  23
ATOM     23  C   UNL     1      20.392   1.093   6.178  0.00  0.00    +0.000 C 
BRANCH  23  24
ATOM     24  O   UNL     1      21.319   2.128   5.885  0.00  0.00    +0.000 OA
ATOM     25  H   UNL     1      21.904   2.264   6.646  0.00  0.00    +0.000 HD
ENDBRANCH  23  24
BRANCH  23  26
ATOM     26  C   UNL     1      19.564   1.484   7.391  0.00  0.00    +0.000 C 
BRANCH  26  27
ATOM     27  O   UNL     1      18.859   2.685   7.116  0.00  0.00    +0.000 OA
ATOM     28  H   UNL     1      18.330   2.935   7.890  0.00  0.00    +0.000 HD
ENDBRANCH  26  27
ENDBRANCH  23  26
ENDBRANCH  20  23
ENDBRANCH  17  20
ENDBRANCH  14  17
ENDBRANCH  12  14
ENDBRANCH  11  12
ENDBRANCH  10  11
ENDBRANCH   9  10
ENDBRANCH   7   9
ENDBRANCH   4   7
ENDBRANCH   1   4
BRANCH   1  29
ATOM     29  C   UNL     1      18.980   7.903   3.291  0.00  0.00    +0.000 C 
BRANCH  29  30
ATOM     30  C   UNL     1      20.482   7.698   3.169  0.00  0.00    +0.000 C 
BRANCH  30  31
ATOM     31  O   UNL     1      20.740   6.578   2.335  0.00  0.00    +0.000 OA
ATOM     32  H   UNL     1      20.335   5.786   2.723  0.00  0.00    +0.000 HD
ENDBRANCH  30  31
BRANCH  30  33
ATOM     33  C   UNL     1      21.073   7.450   4.547  0.00  0.00    +0.000 C 
BRANCH  33  34
ATOM     34  O   UNL     1      20.814   8.570   5.381  0.00  0.00    +0.000 OA
ATOM     35  H   UNL     1      21.219   9.362   4.994  0.00  0.00    +0.000 HD
ENDBRANCH  33  34
ENDBRANCH  30  33
ENDBRANCH  29  30
BRANCH  29  36
ATOM     36  O   UNL     1      18.377   7.749   2.015  0.00  0.00    +0.000 OA
BRANCH  36  37
ATOM     37  C   UNL     1      17.511   8.845   1.759  0.00  0.00    +0.000 C 
ATOM     38  O   UNL     1      16.526   8.891   2.741  0.00  0.00    +0.000 OA
ATOM     39  C   UNL     1      15.675  10.055   2.588  0.00  0.00    +0.000 C 
ATOM     40  C   UNL     1      14.921   9.894   1.285  0.00  0.00    +0.000 C 
ATOM     41  C   UNL     1      15.941   9.792   0.142  0.00  0.00    +0.000 C 
ATOM     42  C   UNL     1      16.888   8.659   0.383  0.00  0.00    +0.000 C 
BRANCH  40  43
ATOM     43  O   UNL     1      14.139   8.690   1.354  0.00  0.00    +0.000 OA
ATOM     44  H   UNL     1      14.725   7.933   1.509  0.00  0.00    +0.000 HD
ENDBRANCH  40  43
BRANCH  41  45
ATOM     45  O   UNL     1      15.287   9.606  -1.118  0.00  0.00    +0.000 OA
ATOM     46  H   UNL     1      14.788   8.774  -1.104  0.00  0.00    +0.000 HD
ENDBRANCH  41  45
BRANCH  42  47
ATOM     47  O   UNL     1      17.886   8.734  -0.639  0.00  0.00    +0.000 OA
ATOM     48  H   UNL     1      18.319   9.601  -0.604  0.00  0.00    +0.000 HD
ENDBRANCH  42  47
BRANCH  39  49
ATOM     49  C   UNL     1      14.710  10.174   3.757  0.00  0.00    +0.000 C 
BRANCH  49  50
ATOM     50  O   UNL     1      13.601  10.995   3.423  0.00  0.00    +0.000 OA
ATOM     51  H   UNL     1      13.122  10.603   2.676  0.00  0.00    +0.000 HD
ENDBRANCH  49  50
ENDBRANCH  39  49
ENDBRANCH  36  37
ENDBRANCH  29  36
ENDBRANCH   1  29
TORSDOF 30
