REMARK  Name = Calcium acetate
REMARK  2 active torsions:
REMARK  status: ('A' for Active; 'I' for Inactive)
REMARK    1  A    between atoms: C_2  and  C_3
REMARK    2  A    between atoms: C_6  and  C_7
REMARK                            x       y       z     vdW  Elec       q    Type
REMARK                         _______ _______ _______ _____ _____    ______ ____
ROOT
ATOM      1 CA   UNL     1       1.463  -2.255   1.819  0.00  0.00    +0.000 Ca
ENDROOT
TORSDOF 0
REMARK  Name = Calcium acetate
REMARK  2 active torsions:
REMARK  status: ('A' for Active; 'I' for Inactive)
REMARK    1  A    between atoms: C_2  and  C_3
REMARK    2  A    between atoms: C_6  and  C_7
REMARK                            x       y       z     vdW  Elec       q    Type
REMARK                         _______ _______ _______ _____ _____    ______ ____
ROOT
ATOM      1  C   UNL     2       1.999   0.168   1.044  0.00  0.00    +0.000 C 
ATOM      2  C   UNL     2       3.393  -0.365   1.223  0.00  0.00    +0.000 C 
ATOM      3  O   UNL     2       3.309  -1.098   2.267  0.00  0.00    +0.000 OA
ATOM      4  O   UNL     2       4.141  -0.577   0.214  0.00  0.00    +0.000 OA
ENDROOT
TORSDOF 0
REMARK  Name = Calcium acetate
REMARK  2 active torsions:
REMARK  status: ('A' for Active; 'I' for Inactive)
REMARK    1  A    between atoms: C_2  and  C_3
REMARK    2  A    between atoms: C_6  and  C_7
REMARK                            x       y       z     vdW  Elec       q    Type
REMARK                         _______ _______ _______ _____ _____    ______ ____
ROOT
ATOM      1  C   UNL     3       0.187   0.501  -1.143  0.00  0.00    +0.000 C 
ATOM      2  C   UNL     3       1.660   0.576  -1.623  0.00  0.00    +0.000 C 
ATOM      3  O   UNL     3       2.265   1.652  -1.363  0.00  0.00    +0.000 OA
ATOM      4  O   UNL     3       2.057  -0.552  -2.034  0.00  0.00    +0.000 OA
ENDROOT
TORSDOF 0
