REMARK  Name = Calcium levulinate
REMARK  8 active torsions:
REMARK  status: ('A' for Active; 'I' for Inactive)
REMARK    1  A    between atoms: C_2  and  C_3
REMARK    2  A    between atoms: C_3  and  C_5
REMARK    3  A    between atoms: C_5  and  C_6
REMARK    4  A    between atoms: C_6  and  C_7
REMARK    5  A    between atoms: C_10  and  C_11
REMARK    6  A    between atoms: C_11  and  C_13
REMARK    7  A    between atoms: C_13  and  C_14
REMARK    8  A    between atoms: C_14  and  C_15
REMARK                            x       y       z     vdW  Elec       q    Type
REMARK                         _______ _______ _______ _____ _____    ______ ____
ROOT
ATOM      1 CA   UNL     1      -2.074  -0.004   0.673  0.00  0.00    +0.000 Ca
ENDROOT
TORSDOF 0
REMARK  Name = Calcium levulinate
REMARK  8 active torsions:
REMARK  status: ('A' for Active; 'I' for Inactive)
REMARK    1  A    between atoms: C_2  and  C_3
REMARK    2  A    between atoms: C_3  and  C_5
REMARK    3  A    between atoms: C_5  and  C_6
REMARK    4  A    between atoms: C_6  and  C_7
REMARK    5  A    between atoms: C_10  and  C_11
REMARK    6  A    between atoms: C_11  and  C_13
REMARK    7  A    between atoms: C_13  and  C_14
REMARK    8  A    between atoms: C_14  and  C_15
REMARK                            x       y       z     vdW  Elec       q    Type
REMARK                         _______ _______ _______ _____ _____    ______ ____
ROOT
ATOM      1  C   UNL     2       3.188   1.555   0.271  0.00  0.00    +0.000 C 
ENDROOT
BRANCH   1   3
ATOM      2  C   UNL     2       0.418   0.165  -0.986  0.00  0.00    +0.000 C 
ATOM      3  C   UNL     2       2.103   0.798  -1.141  0.00  0.00    +0.000 C 
ATOM      4  O   UNL     2       2.513   0.315  -2.276  0.00  0.00    +0.000 OA
ENDBRANCH   1   3
BRANCH   1   5
ATOM      5  C   UNL     2       4.851   1.476   0.569  0.00  0.00    +0.000 C 
BRANCH   5   6
ATOM      6  C   UNL     2       5.452   1.489   2.101  0.00  0.00    +0.000 C 
ATOM      7  O   UNL     2       4.573   1.576   3.015  0.00  0.00    +0.000 OA
ATOM      8  O   UNL     2       6.711   1.443   2.197  0.00  0.00    +0.000 OA
ENDBRANCH   5   6
ENDBRANCH   1   5
TORSDOF 3
REMARK  Name = Calcium levulinate
REMARK  8 active torsions:
REMARK  status: ('A' for Active; 'I' for Inactive)
REMARK    1  A    between atoms: C_2  and  C_3
REMARK    2  A    between atoms: C_3  and  C_5
REMARK    3  A    between atoms: C_5  and  C_6
REMARK    4  A    between atoms: C_6  and  C_7
REMARK    5  A    between atoms: C_10  and  C_11
REMARK    6  A    between atoms: C_11  and  C_13
REMARK    7  A    between atoms: C_13  and  C_14
REMARK    8  A    between atoms: C_14  and  C_15
REMARK                            x       y       z     vdW  Elec       q    Type
REMARK                         _______ _______ _______ _____ _____    ______ ____
ROOT
ATOM      1  C   UNL     3       3.708  -1.760   1.320  0.00  0.00    +0.000 C 
ENDROOT
BRANCH   1   3
ATOM      2  C   UNL     3       1.753  -0.392   0.930  0.00  0.00    +0.000 C 
ATOM      3  C   UNL     3       3.169  -0.835   0.397  0.00  0.00    +0.000 C 
ATOM      4  O   UNL     3       3.752  -0.648  -0.647  0.00  0.00    +0.000 OA
ENDBRANCH   1   3
BRANCH   1   5
ATOM      5  C   UNL     3       5.165  -1.652   1.051  0.00  0.00    +0.000 C 
BRANCH   5   6
ATOM      6  C   UNL     3       5.855  -2.301   2.166  0.00  0.00    +0.000 C 
ATOM      7  O   UNL     3       5.092  -2.765   3.062  0.00  0.00    +0.000 OA
ATOM      8  O   UNL     3       7.105  -2.287   2.052  0.00  0.00    +0.000 OA
ENDBRANCH   5   6
ENDBRANCH   1   5
TORSDOF 3
