REMARK  Name = Calcium threonate
REMARK  12 active torsions:
REMARK  status: ('A' for Active; 'I' for Inactive)
REMARK    1  A    between atoms: O_2  and  C_3
REMARK    2  A    between atoms: C_3  and  C_4
REMARK    3  A    between atoms: C_4  and  O_5
REMARK    4  A    between atoms: C_4  and  C_6
REMARK    5  A    between atoms: C_6  and  O_7
REMARK    6  A    between atoms: C_6  and  C_8
REMARK    7  A    between atoms: O_11  and  C_12
REMARK    8  A    between atoms: C_12  and  C_13
REMARK    9  A    between atoms: C_13  and  O_14
REMARK   10  A    between atoms: C_13  and  C_15
REMARK   11  A    between atoms: C_15  and  O_16
REMARK   12  A    between atoms: C_15  and  C_17
REMARK                            x       y       z     vdW  Elec       q    Type
REMARK                         _______ _______ _______ _____ _____    ______ ____
ROOT
ATOM      1 CA   UNL     1       0.032  -0.550   0.184  0.00  0.00    +0.000 Ca
ENDROOT
TORSDOF 0
REMARK  Name = Calcium threonate
REMARK  12 active torsions:
REMARK  status: ('A' for Active; 'I' for Inactive)
REMARK    1  A    between atoms: O_2  and  C_3
REMARK    2  A    between atoms: C_3  and  C_4
REMARK    3  A    between atoms: C_4  and  O_5
REMARK    4  A    between atoms: C_4  and  C_6
REMARK    5  A    between atoms: C_6  and  O_7
REMARK    6  A    between atoms: C_6  and  C_8
REMARK    7  A    between atoms: O_11  and  C_12
REMARK    8  A    between atoms: C_12  and  C_13
REMARK    9  A    between atoms: C_13  and  O_14
REMARK   10  A    between atoms: C_13  and  C_15
REMARK   11  A    between atoms: C_15  and  O_16
REMARK   12  A    between atoms: C_15  and  C_17
REMARK                            x       y       z     vdW  Elec       q    Type
REMARK                         _______ _______ _______ _____ _____    ______ ____
ROOT
ATOM      1  C   UNL     2       3.422  -1.732   0.733  0.00  0.00    +0.000 C 
ENDROOT
BRANCH   1   2
ATOM      2  O   UNL     2       3.184  -1.029  -0.526  0.00  0.00    +0.000 OA
ATOM      3  H   UNL     2       4.027  -0.549  -0.728  0.00  0.00    +0.000 HD
ENDBRANCH   1   2
BRANCH   1   4
ATOM      4  C   UNL     2       2.541  -2.976   0.706  0.00  0.00    +0.000 C 
BRANCH   4   5
ATOM      5  O   UNL     2       1.238  -2.662   0.067  0.00  0.00    +0.000 OA
ATOM      6  H   UNL     2       1.064  -3.543  -0.345  0.00  0.00    +0.000 HD
ENDBRANCH   4   5
ENDBRANCH   1   4
BRANCH   1   7
ATOM      7  C   UNL     2       4.922  -1.824   1.136  0.00  0.00    +0.000 C 
BRANCH   7   8
ATOM      8  C   UNL     2       5.118  -2.709   2.376  0.00  0.00    +0.000 C 
ATOM      9  O   UNL     2       4.057  -2.937   3.026  0.00  0.00    +0.000 OA
ATOM     10  O   UNL     2       6.309  -3.020   2.628  0.00  0.00    +0.000 OA
ENDBRANCH   7   8
BRANCH   7  11
ATOM     11  O   UNL     2       5.559  -0.573   1.449  0.00  0.00    +0.000 OA
ATOM     12  H   UNL     2       5.539  -0.380   2.416  0.00  0.00    +0.000 HD
ENDBRANCH   7  11
ENDBRANCH   1   7
TORSDOF 6
REMARK  Name = Calcium threonate
REMARK  12 active torsions:
REMARK  status: ('A' for Active; 'I' for Inactive)
REMARK    1  A    between atoms: O_2  and  C_3
REMARK    2  A    between atoms: C_3  and  C_4
REMARK    3  A    between atoms: C_4  and  O_5
REMARK    4  A    between atoms: C_4  and  C_6
REMARK    5  A    between atoms: C_6  and  O_7
REMARK    6  A    between atoms: C_6  and  C_8
REMARK    7  A    between atoms: O_11  and  C_12
REMARK    8  A    between atoms: C_12  and  C_13
REMARK    9  A    between atoms: C_13  and  O_14
REMARK   10  A    between atoms: C_13  and  C_15
REMARK   11  A    between atoms: C_15  and  O_16
REMARK   12  A    between atoms: C_15  and  C_17
REMARK                            x       y       z     vdW  Elec       q    Type
REMARK                         _______ _______ _______ _____ _____    ______ ____
ROOT
ATOM      1  C   UNL     3       2.427   1.493   1.313  0.00  0.00    +0.000 C 
ENDROOT
BRANCH   1   2
ATOM      2  O   UNL     3       1.697   0.812   0.202  0.00  0.00    +0.000 OA
ATOM      3  H   UNL     3       2.441   0.320  -0.254  0.00  0.00    +0.000 HD
ENDBRANCH   1   2
BRANCH   1   4
ATOM      4  C   UNL     3       2.197   0.577   2.564  0.00  0.00    +0.000 C 
BRANCH   4   5
ATOM      5  O   UNL     3       1.568   1.069   3.717  0.00  0.00    +0.000 OA
ATOM      6  H   UNL     3       1.976   0.535   4.438  0.00  0.00    +0.000 HD
ENDBRANCH   4   5
ENDBRANCH   1   4
BRANCH   1   7
ATOM      7  C   UNL     3       3.921   1.575   0.982  0.00  0.00    +0.000 C 
BRANCH   7   8
ATOM      8  C   UNL     3       4.757   2.214   2.137  0.00  0.00    +0.000 C 
ATOM      9  O   UNL     3       4.011   2.670   3.085  0.00  0.00    +0.000 OA
ATOM     10  O   UNL     3       5.977   2.180   2.056  0.00  0.00    +0.000 OA
ENDBRANCH   7   8
BRANCH   7  11
ATOM     11  O   UNL     3       4.210   2.029  -0.360  0.00  0.00    +0.000 OA
ATOM     12  H   UNL     3       4.917   2.701  -0.254  0.00  0.00    +0.000 HD
ENDBRANCH   7  11
ENDBRANCH   1   7
TORSDOF 6
