REMARK  Name = Calcifediol
REMARK  12 active torsions:
REMARK  status: ('A' for Active; 'I' for Inactive)
REMARK    1  A    between atoms: C_1  and  C_2
REMARK    2  A    between atoms: C_2  and  C_3
REMARK    3  A    between atoms: C_2  and  C_10
REMARK    4  A    between atoms: C_3  and  C_4
REMARK    5  A    between atoms: C_4  and  C_5
REMARK    6  A    between atoms: C_5  and  C_6
REMARK    7  A    between atoms: C_6  and  C_7
REMARK    8  A    between atoms: C_6  and  C_8
REMARK    9  A    between atoms: C_6  and  O_9
REMARK   10  A    between atoms: C_20  and  C_21
REMARK   11  A    between atoms: C_22  and  C_23
REMARK   12  A    between atoms: C_26  and  O_27
REMARK                            x       y       z     vdW  Elec       q    Type
REMARK                         _______ _______ _______ _____ _____    ______ ____
ROOT
ATOM      1  C   UNL     1       3.079  -1.273   0.605  0.00  0.00    +0.000 C 
ATOM      2  C   UNL     1       2.500  -1.652   1.995  0.00  0.00    +0.000 C 
ATOM      3  C   UNL     1       2.272  -3.166   2.005  0.00  0.00    +0.000 C 
ATOM      4  C   UNL     1       3.124  -3.666   0.842  0.00  0.00    +0.000 C 
ATOM      5  C   UNL     1       2.776  -4.965   0.173  0.00  0.00    +0.000 C 
ATOM      6  C   UNL     1       3.516  -5.031  -1.153  0.00  0.00    +0.000 C 
ATOM      7  C   UNL     1       3.669  -3.939  -2.196  0.00  0.00    +0.000 C 
ATOM      8  C   UNL     1       3.960  -2.647  -1.433  0.00  0.00    +0.000 C 
ATOM      9  C   UNL     1       2.988  -2.563  -0.230  0.00  0.00    +0.000 C 
ATOM     10  C   UNL     1       1.656  -2.844  -0.856  0.00  0.00    +0.000 C 
ATOM     11  C   UNL     1       1.955  -5.938   0.614  0.00  0.00    +0.000 C 
ENDROOT
BRANCH  11  12
ATOM     12  C   UNL     1       1.905  -7.246  -0.020  0.00  0.00    +0.000 C 
ATOM     13  C   UNL     1       2.981  -8.026  -0.272  0.00  0.00    +0.000 C 
ATOM     14  C   UNL     1       2.828  -9.379  -0.910  0.00  0.00    +0.000 C 
ATOM     15  C   UNL     1       3.618 -10.431  -0.118  0.00  0.00    +0.000 C 
ATOM     16  C   UNL     1       5.070 -10.001   0.110  0.00  0.00    +0.000 C 
ATOM     17  C   UNL     1       5.125  -8.707   0.916  0.00  0.00    +0.000 C 
ATOM     18  C   UNL     1       4.394  -7.708   0.080  0.00  0.00    +0.000 C 
ATOM     19  C   UNL     1       5.257  -6.951  -0.573  0.00  0.00    +0.000 C 
BRANCH  15  20
ATOM     20  O   UNL     1       3.598 -11.673  -0.811  0.00  0.00    +0.000 OA
ATOM     21  H   UNL     1       3.986 -11.524  -1.691  0.00  0.00    +0.000 HD
ENDBRANCH  15  20
ENDBRANCH  11  12
BRANCH   1  23
ATOM     22  C   UNL     1       3.133   1.221   0.800  0.00  0.00    +0.000 C 
ATOM     23  C   UNL     1       2.528   0.062  -0.003  0.00  0.00    +0.000 C 
BRANCH  23  24
ATOM     24  C   UNL     1       0.971   0.311  -0.014  0.00  0.00    +0.000 C 
BRANCH  24  25
ATOM     25  C   UNL     1       0.248  -0.398  -1.133  0.00  0.00    +0.000 C 
BRANCH  25  26
ATOM     26  C   UNL     1      -1.229  -0.715  -1.154  0.00  0.00    +0.000 C 
BRANCH  26  27
ATOM     27  C   UNL     1      -1.594  -1.852  -2.187  0.00  0.00    +0.000 C 
ATOM     28  C   UNL     1      -1.036  -1.522  -3.577  0.00  0.00    +0.000 C 
ATOM     29  C   UNL     1      -1.170  -3.296  -1.871  0.00  0.00    +0.000 C 
BRANCH  27  30
ATOM     30  O   UNL     1      -3.018  -1.905  -2.246  0.00  0.00    +0.000 OA
ATOM     31  H   UNL     1      -3.329  -0.997  -2.386  0.00  0.00    +0.000 HD
ENDBRANCH  27  30
ENDBRANCH  26  27
ENDBRANCH  25  26
ENDBRANCH  24  25
ENDBRANCH  23  24
ENDBRANCH   1  23
TORSDOF 8
