REMARK  Name = Calcium saccharate
REMARK  9 active torsions:
REMARK  status: ('A' for Active; 'I' for Inactive)
REMARK    1  A    between atoms: C_3  and  O_4
REMARK    2  A    between atoms: C_3  and  C_5
REMARK    3  A    between atoms: C_3  and  C_8
REMARK    4  A    between atoms: C_8  and  O_10
REMARK    5  A    between atoms: C_8  and  C_11
REMARK    6  A    between atoms: C_11  and  O_13
REMARK    7  A    between atoms: C_11  and  C_14
REMARK    8  A    between atoms: C_14  and  O_16
REMARK    9  A    between atoms: C_14  and  C_17
REMARK                            x       y       z     vdW  Elec       q    Type
REMARK                         _______ _______ _______ _____ _____    ______ ____
ROOT
ATOM      1 CA   UNL     1       1.502   0.530  -0.444  0.00  0.00    +0.000 Ca
ENDROOT
TORSDOF 0
REMARK  Name = Calcium saccharate
REMARK  9 active torsions:
REMARK  status: ('A' for Active; 'I' for Inactive)
REMARK    1  A    between atoms: C_3  and  O_4
REMARK    2  A    between atoms: C_3  and  C_5
REMARK    3  A    between atoms: C_3  and  C_8
REMARK    4  A    between atoms: C_8  and  O_10
REMARK    5  A    between atoms: C_8  and  C_11
REMARK    6  A    between atoms: C_11  and  O_13
REMARK    7  A    between atoms: C_11  and  C_14
REMARK    8  A    between atoms: C_14  and  O_16
REMARK    9  A    between atoms: C_14  and  C_17
REMARK                            x       y       z     vdW  Elec       q    Type
REMARK                         _______ _______ _______ _____ _____    ______ ____
ROOT
ATOM      1  C   UNL     2       2.665   1.885  -3.599  0.00  0.00    +0.000 C 
ENDROOT
BRANCH   1   2
ATOM      2  O   UNL     2       1.961   0.856  -4.366  0.00  0.00    +0.000 OA
ATOM      3  H   UNL     2       1.210   1.341  -4.782  0.00  0.00    +0.000 HD
ENDBRANCH   1   2
BRANCH   1   4
ATOM      4  C   UNL     2       2.333   3.256  -4.177  0.00  0.00    +0.000 C 
BRANCH   4   5
ATOM      5  C   UNL     2       2.542   4.412  -3.149  0.00  0.00    +0.000 C 
ATOM      6  O   UNL     2       1.998   4.123  -2.017  0.00  0.00    +0.000 OA
ATOM      7  O   UNL     2       2.924   5.514  -3.626  0.00  0.00    +0.000 OA
ENDBRANCH   4   5
BRANCH   4   8
ATOM      8  O   UNL     2       0.875   3.171  -4.381  0.00  0.00    +0.000 OA
ATOM      9  H   UNL     2       0.540   3.721  -3.636  0.00  0.00    +0.000 HD
ENDBRANCH   4   8
ENDBRANCH   1   4
BRANCH   1  10
ATOM     10  C   UNL     2       4.167   1.544  -3.491  0.00  0.00    +0.000 C 
BRANCH  10  11
ATOM     11  O   UNL     2       4.239   0.107  -3.628  0.00  0.00    +0.000 OA
ATOM     12  H   UNL     2       4.007  -0.032  -4.570  0.00  0.00    +0.000 HD
ENDBRANCH  10  11
BRANCH  10  13
ATOM     13  C   UNL     2       4.760   1.909  -2.129  0.00  0.00    +0.000 C 
BRANCH  13  14
ATOM     14  C   UNL     2       6.297   1.778  -2.120  0.00  0.00    +0.000 C 
ATOM     15  O   UNL     2       6.718   1.055  -1.185  0.00  0.00    +0.000 OA
ATOM     16  O   UNL     2       6.927   2.451  -3.001  0.00  0.00    +0.000 OA
ENDBRANCH  13  14
BRANCH  13  17
ATOM     17  O   UNL     2       4.366   3.217  -1.749  0.00  0.00    +0.000 OA
ATOM     18  H   UNL     2       4.669   3.443  -0.857  0.00  0.00    +0.000 HD
ENDBRANCH  13  17
ENDBRANCH  10  13
ENDBRANCH   1  10
TORSDOF 9
