REMARK  Name = Calcium carbonate
REMARK  0 active torsions:
REMARK  status: ('A' for Active; 'I' for Inactive)
REMARK                            x       y       z     vdW  Elec       q    Type
REMARK                         _______ _______ _______ _____ _____    ______ ____
ROOT
ATOM      1 CA   UNL     1       0.800   0.666   1.069  0.00  0.00    +0.000 Ca
ENDROOT
TORSDOF 0
REMARK  Name = Calcium carbonate
REMARK  0 active torsions:
REMARK  status: ('A' for Active; 'I' for Inactive)
REMARK                            x       y       z     vdW  Elec       q    Type
REMARK                         _______ _______ _______ _____ _____    ______ ____
ROOT
ATOM      1  O   UNL     1       1.323  -0.243  -0.853  0.00  0.00    +0.000 OA
ATOM      2  C   UNL     1       2.486  -0.210  -0.429  0.00  0.00    +0.000 C 
ATOM      3  O   UNL     1       2.671   0.948  -0.033  0.00  0.00    +0.000 OA
ATOM      4  O   UNL     1       3.047  -1.171   0.046  0.00  0.00    +0.000 OA
ENDROOT
TORSDOF 0
