REMARK  Name = Calcium glycerophosphate
REMARK  6 active torsions:
REMARK  status: ('A' for Active; 'I' for Inactive)
REMARK    1  A    between atoms: O_2  and  C_3
REMARK    2  A    between atoms: C_3  and  C_4
REMARK    3  A    between atoms: C_4  and  C_5
REMARK    4  A    between atoms: C_4  and  O_7
REMARK    5  A    between atoms: C_5  and  O_6
REMARK    6  A    between atoms: O_7  and  P_8
REMARK                            x       y       z     vdW  Elec       q    Type
REMARK                         _______ _______ _______ _____ _____    ______ ____
ROOT
ATOM      1 CA   UNL     1       0.873   0.946  -1.896  0.00  0.00    +0.000 Ca
ENDROOT
TORSDOF 0
REMARK  Name = Calcium glycerophosphate
REMARK  6 active torsions:
REMARK  status: ('A' for Active; 'I' for Inactive)
REMARK    1  A    between atoms: O_2  and  C_3
REMARK    2  A    between atoms: C_3  and  C_4
REMARK    3  A    between atoms: C_4  and  C_5
REMARK    4  A    between atoms: C_4  and  O_7
REMARK    5  A    between atoms: C_5  and  O_6
REMARK    6  A    between atoms: O_7  and  P_8
REMARK                            x       y       z     vdW  Elec       q    Type
REMARK                         _______ _______ _______ _____ _____    ______ ____
ROOT
ATOM      1  C   UNL     2       2.963  -1.351  -0.333  0.00  0.00    +0.000 C 
ENDROOT
BRANCH   1   2
ATOM      2  C   UNL     2       2.689   0.000   0.346  0.00  0.00    +0.000 C 
BRANCH   2   3
ATOM      3  O   UNL     2       1.301   0.424   0.340  0.00  0.00    +0.000 OA
ATOM      4  H   UNL     2       0.999   0.156   1.238  0.00  0.00    +0.000 HD
ENDBRANCH   2   3
ENDBRANCH   1   2
BRANCH   1   5
ATOM      5  C   UNL     2       2.191  -1.533  -1.678  0.00  0.00    +0.000 C 
BRANCH   5   6
ATOM      6  O   UNL     2       0.762  -1.255  -1.587  0.00  0.00    +0.000 OA
ATOM      7  H   UNL     2       0.404  -2.165  -1.421  0.00  0.00    +0.000 HD
ENDBRANCH   5   6
ENDBRANCH   1   5
BRANCH   1   8
ATOM      8  O   UNL     2       4.385  -1.362  -0.480  0.00  0.00    +0.000 OA
BRANCH   8   9
ATOM      9  P   UNL     2       4.962  -2.862  -1.120  0.00  0.00    +0.000 P 
ATOM     10  O   UNL     2       4.349  -2.354  -2.451  0.00  0.00    +0.000 OA
ATOM     11  O   UNL     2       6.324  -2.301  -0.694  0.00  0.00    +0.000 OA
ATOM     12  O   UNL     2       5.478  -4.205  -1.692  0.00  0.00    +0.000 OA
ENDBRANCH   8   9
ENDBRANCH   1   8
TORSDOF 6
