REMARK  Name = Calcium ascorbate
REMARK  10 active torsions:
REMARK  status: ('A' for Active; 'I' for Inactive)
REMARK    1  A    between atoms: O_2  and  C_3
REMARK    2  A    between atoms: C_3  and  C_4
REMARK    3  A    between atoms: C_4  and  O_5
REMARK    4  A    between atoms: C_4  and  C_6
REMARK    5  A    between atoms: C_10  and  O_11
REMARK    6  A    between atoms: O_14  and  C_15
REMARK    7  A    between atoms: C_15  and  C_16
REMARK    8  A    between atoms: C_16  and  O_17
REMARK    9  A    between atoms: C_16  and  C_18
REMARK   10  A    between atoms: C_22  and  O_23
REMARK                            x       y       z     vdW  Elec       q    Type
REMARK                         _______ _______ _______ _____ _____    ______ ____
ROOT
ATOM      1 CA   UNL     1       1.291   0.007  -0.042  0.00  0.00    +0.000 Ca
ENDROOT
TORSDOF 0
REMARK  Name = Calcium ascorbate
REMARK  10 active torsions:
REMARK  status: ('A' for Active; 'I' for Inactive)
REMARK    1  A    between atoms: O_2  and  C_3
REMARK    2  A    between atoms: C_3  and  C_4
REMARK    3  A    between atoms: C_4  and  O_5
REMARK    4  A    between atoms: C_4  and  C_6
REMARK    5  A    between atoms: C_10  and  O_11
REMARK    6  A    between atoms: O_14  and  C_15
REMARK    7  A    between atoms: C_15  and  C_16
REMARK    8  A    between atoms: C_16  and  O_17
REMARK    9  A    between atoms: C_16  and  C_18
REMARK   10  A    between atoms: C_22  and  O_23
REMARK                            x       y       z     vdW  Elec       q    Type
REMARK                         _______ _______ _______ _____ _____    ______ ____
ROOT
ATOM      1  C   UNL     2       3.737   1.862   0.603  0.00  0.00    +0.000 C 
ATOM      2  O   UNL     2       3.334   1.040   1.779  0.00  0.00    +0.000 OA
ATOM      3  C   UNL     2       3.740   1.634   2.992  0.00  0.00    +0.000 C 
ATOM      4  O   UNL     2       3.742   1.132   4.104  0.00  0.00    +0.000 OA
ATOM      5  C   UNL     2       4.299   2.955   2.624  0.00  0.00    +0.000 C 
ATOM      6  C   UNL     2       4.213   3.090   1.286  0.00  0.00    +0.000 C 
ATOM      7  O   UNL     2       4.590   3.951   0.466  0.00  0.00    +0.000 OA
ENDROOT
BRANCH   5   8
ATOM      8  O   UNL     2       5.036   3.790   3.453  0.00  0.00    +0.000 OA
ATOM      9  H   UNL     2       5.461   3.295   4.175  0.00  0.00    +0.000 HD
ENDBRANCH   5   8
BRANCH   1  10
ATOM     10  C   UNL     2       4.589   1.336  -0.887  0.00  0.00    +0.000 C 
BRANCH  10  11
ATOM     11  O   UNL     2       3.778   0.188  -1.368  0.00  0.00    +0.000 OA
ATOM     12  H   UNL     2       4.440  -0.553  -1.380  0.00  0.00    +0.000 HD
ENDBRANCH  10  11
BRANCH  10  13
ATOM     13  C   UNL     2       6.184   1.055  -1.121  0.00  0.00    +0.000 C 
BRANCH  13  14
ATOM     14  O   UNL     2       6.754   0.856  -2.440  0.00  0.00    +0.000 OA
ATOM     15  H   UNL     2       7.675   0.539  -2.240  0.00  0.00    +0.000 HD
ENDBRANCH  13  14
ENDBRANCH  10  13
ENDBRANCH   1  10
TORSDOF 5
REMARK  Name = Calcium ascorbate
REMARK  10 active torsions:
REMARK  status: ('A' for Active; 'I' for Inactive)
REMARK    1  A    between atoms: O_2  and  C_3
REMARK    2  A    between atoms: C_3  and  C_4
REMARK    3  A    between atoms: C_4  and  O_5
REMARK    4  A    between atoms: C_4  and  C_6
REMARK    5  A    between atoms: C_10  and  O_11
REMARK    6  A    between atoms: O_14  and  C_15
REMARK    7  A    between atoms: C_15  and  C_16
REMARK    8  A    between atoms: C_16  and  O_17
REMARK    9  A    between atoms: C_16  and  C_18
REMARK   10  A    between atoms: C_22  and  O_23
REMARK                            x       y       z     vdW  Elec       q    Type
REMARK                         _______ _______ _______ _____ _____    ______ ____
ROOT
ATOM      1  C   UNL     3       4.808  -0.998   1.455  0.00  0.00    +0.000 C 
ATOM      2  O   UNL     3       5.113  -1.817   0.281  0.00  0.00    +0.000 OA
ATOM      3  C   UNL     3       5.444  -3.071   0.735  0.00  0.00    +0.000 C 
ATOM      4  O   UNL     3       5.430  -4.087   0.056  0.00  0.00    +0.000 OA
ATOM      5  C   UNL     3       5.632  -2.991   2.189  0.00  0.00    +0.000 C 
ATOM      6  C   UNL     3       4.910  -1.926   2.588  0.00  0.00    +0.000 C 
ATOM      7  O   UNL     3       4.437  -1.557   3.660  0.00  0.00    +0.000 OA
ENDROOT
BRANCH   5   8
ATOM      8  O   UNL     3       6.165  -3.868   3.073  0.00  0.00    +0.000 OA
ATOM      9  H   UNL     3       6.367  -4.693   2.621  0.00  0.00    +0.000 HD
ENDBRANCH   5   8
BRANCH   1  10
ATOM     10  C   UNL     3       5.892   0.252   1.671  0.00  0.00    +0.000 C 
BRANCH  10  11
ATOM     11  O   UNL     3       7.075  -0.147   0.989  0.00  0.00    +0.000 OA
ATOM     12  H   UNL     3       7.095  -1.083   1.201  0.00  0.00    +0.000 HD
ENDBRANCH  10  11
BRANCH  10  13
ATOM     13  C   UNL     3       6.458   0.835   2.983  0.00  0.00    +0.000 C 
BRANCH  13  14
ATOM     14  O   UNL     3       7.369   1.936   2.743  0.00  0.00    +0.000 OA
ATOM     15  H   UNL     3       7.292   2.524   3.518  0.00  0.00    +0.000 HD
ENDBRANCH  13  14
ENDBRANCH  10  13
ENDBRANCH   1  10
TORSDOF 5
