REMARK  Name = Calcium lactate
REMARK  6 active torsions:
REMARK  status: ('A' for Active; 'I' for Inactive)
REMARK    1  A    between atoms: C_2  and  C_3
REMARK    2  A    between atoms: C_3  and  O_4
REMARK    3  A    between atoms: C_3  and  C_5
REMARK    4  A    between atoms: C_8  and  C_9
REMARK    5  A    between atoms: C_9  and  O_10
REMARK    6  A    between atoms: C_9  and  C_11
REMARK                            x       y       z     vdW  Elec       q    Type
REMARK                         _______ _______ _______ _____ _____    ______ ____
ROOT
ATOM      1 CA   UNL     1       1.015  -2.697   0.594  0.00  0.00    +0.000 Ca
ENDROOT
TORSDOF 0
REMARK  Name = Calcium lactate
REMARK  6 active torsions:
REMARK  status: ('A' for Active; 'I' for Inactive)
REMARK    1  A    between atoms: C_2  and  C_3
REMARK    2  A    between atoms: C_3  and  O_4
REMARK    3  A    between atoms: C_3  and  C_5
REMARK    4  A    between atoms: C_8  and  C_9
REMARK    5  A    between atoms: C_9  and  O_10
REMARK    6  A    between atoms: C_9  and  C_11
REMARK                            x       y       z     vdW  Elec       q    Type
REMARK                         _______ _______ _______ _____ _____    ______ ____
ROOT
ATOM      1  C   UNL     2       1.433   1.080  -0.247  0.00  0.00    +0.000 C 
ATOM      2  C   UNL     2       3.490   0.432   0.034  0.00  0.00    +0.000 C 
ENDROOT
BRANCH   2   3
ATOM      3  C   UNL     2       3.441   1.905   0.861  0.00  0.00    +0.000 C 
ATOM      4  O   UNL     2       2.347   2.484   1.135  0.00  0.00    +0.000 OA
ATOM      5  O   UNL     2       4.584   2.126   1.325  0.00  0.00    +0.000 OA
ENDBRANCH   2   3
BRANCH   2   6
ATOM      6  O   UNL     2       3.237  -0.464  -1.659  0.00  0.00    +0.000 OA
ATOM      7  H   UNL     2       2.734   0.135  -2.370  0.00  0.00    +0.000 HD
ENDBRANCH   2   6
TORSDOF 2
REMARK  Name = Calcium lactate
REMARK  6 active torsions:
REMARK  status: ('A' for Active; 'I' for Inactive)
REMARK    1  A    between atoms: C_2  and  C_3
REMARK    2  A    between atoms: C_3  and  O_4
REMARK    3  A    between atoms: C_3  and  C_5
REMARK    4  A    between atoms: C_8  and  C_9
REMARK    5  A    between atoms: C_9  and  O_10
REMARK    6  A    between atoms: C_9  and  C_11
REMARK                            x       y       z     vdW  Elec       q    Type
REMARK                         _______ _______ _______ _____ _____    ______ ____
ROOT
ATOM      1  C   UNL     3       0.014  -0.233   0.300  0.00  0.00    +0.000 C 
ATOM      2  C   UNL     3       2.032  -0.355   0.136  0.00  0.00    +0.000 C 
ENDROOT
BRANCH   2   3
ATOM      3  C   UNL     3       2.776   1.288  -1.252  0.00  0.00    +0.000 C 
ATOM      4  O   UNL     3       1.996   1.837  -2.142  0.00  0.00    +0.000 OA
ATOM      5  O   UNL     3       4.083   1.554  -1.483  0.00  0.00    +0.000 OA
ENDBRANCH   2   3
BRANCH   2   6
ATOM      6  O   UNL     3       2.530  -1.756  -0.192  0.00  0.00    +0.000 OA
ATOM      7  H   UNL     3       2.840  -1.552  -1.138  0.00  0.00    +0.000 HD
ENDBRANCH   2   6
TORSDOF 2
