REMARK  Name = Calcium chloride
REMARK  0 active torsions:
REMARK  status: ('A' for Active; 'I' for Inactive)
REMARK                            x       y       z     vdW  Elec       q    Type
REMARK                         _______ _______ _______ _____ _____    ______ ____
ROOT
ATOM      1 CL   UNL     1       1.895  -2.320   0.206  0.00  0.00    +0.000 Cl
ENDROOT
TORSDOF 0
REMARK  Name = Calcium chloride
REMARK  0 active torsions:
REMARK  status: ('A' for Active; 'I' for Inactive)
REMARK                            x       y       z     vdW  Elec       q    Type
REMARK                         _______ _______ _______ _____ _____    ______ ____
ROOT
ATOM      1 CL   UNL     1       0.149   2.413  -0.095  0.00  0.00    +0.000 Cl
ENDROOT
TORSDOF 0
REMARK  Name = Calcium chloride
REMARK  0 active torsions:
REMARK  status: ('A' for Active; 'I' for Inactive)
REMARK                            x       y       z     vdW  Elec       q    Type
REMARK                         _______ _______ _______ _____ _____    ______ ____
ROOT
ATOM      1 CA   UNL     1       0.938   0.014  -0.016  0.00  0.00    +0.000 Ca
ENDROOT
TORSDOF 0
