REMARK  Name = Calcium carbimide
REMARK  0 active torsions:
REMARK  status: ('A' for Active; 'I' for Inactive)
REMARK                            x       y       z     vdW  Elec       q    Type
REMARK                         _______ _______ _______ _____ _____    ______ ____
ROOT
ATOM      1 CA   UNL     1       0.596   0.980   1.633  0.00  0.00    +0.000 Ca
ENDROOT
TORSDOF 0
REMARK  Name = Calcium carbimide
REMARK  0 active torsions:
REMARK  status: ('A' for Active; 'I' for Inactive)
REMARK                            x       y       z     vdW  Elec       q    Type
REMARK                         _______ _______ _______ _____ _____    ______ ____
ROOT
ATOM      1  N   UNL     1       1.255  -0.708  -0.899  0.00  0.00    +0.000 NA
ATOM      2  C   UNL     1       2.418  -0.442  -0.501  0.00  0.00    +0.000 C 
ATOM      3  N   UNL     1       3.540  -0.139  -0.046  0.00  0.00    +0.000 NA
ENDROOT
TORSDOF 0
