REMARK  Name = Camphor
REMARK  3 active torsions:
REMARK  status: ('A' for Active; 'I' for Inactive)
REMARK    1  A    between atoms: C_5  and  C_6
REMARK    2  A    between atoms: C_10  and  C_11
REMARK    3  A    between atoms: C_10  and  C_12
REMARK                            x       y       z     vdW  Elec       q    Type
REMARK                         _______ _______ _______ _____ _____    ______ ____
ROOT
ATOM      1  C   UNL     1       2.153   0.022   0.078  0.00  0.00    +0.000 C 
ATOM      2  C   UNL     1       2.758   0.313  -1.319  0.00  0.00    +0.000 C 
ATOM      3  C   UNL     1       4.228  -0.145  -1.170  0.00  0.00    +0.000 C 
ATOM      4  C   UNL     1       4.278  -0.676   0.282  0.00  0.00    +0.000 C 
ATOM      5  C   UNL     1       5.475  -1.536   0.614  0.00  0.00    +0.000 C 
ATOM      6  C   UNL     1       4.146   0.598   1.123  0.00  0.00    +0.000 C 
ATOM      7  O   UNL     1       5.047   1.154   1.729  0.00  0.00    +0.000 OA
ATOM      8  C   UNL     1       2.714   1.092   1.048  0.00  0.00    +0.000 C 
ATOM      9  C   UNL     1       2.869  -1.292   0.496  0.00  0.00    +0.000 C 
ATOM     10  C   UNL     1       2.559  -2.495  -0.417  0.00  0.00    +0.000 C 
ATOM     11  C   UNL     1       2.584  -1.741   1.941  0.00  0.00    +0.000 C 
ENDROOT
TORSDOF 0
