REMARK  Name = Canagliflozin
REMARK  10 active torsions:
REMARK  status: ('A' for Active; 'I' for Inactive)
REMARK    1  A    between atoms: C_2  and  C_13
REMARK    2  A    between atoms: C_4  and  C_5
REMARK    3  A    between atoms: C_5  and  O_6
REMARK    4  A    between atoms: C_7  and  O_8
REMARK    5  A    between atoms: C_9  and  O_10
REMARK    6  A    between atoms: C_11  and  O_12
REMARK    7  A    between atoms: C_16  and  C_17
REMARK    8  A    between atoms: C_18  and  C_19
REMARK    9  A    between atoms: C_19  and  C_20
REMARK   10  A    between atoms: C_23  and  C_25
REMARK                            x       y       z     vdW  Elec       q    Type
REMARK                         _______ _______ _______ _____ _____    ______ ____
ROOT
ATOM      1  C   UNL     1       2.606   1.285   0.625  0.00  0.00    +0.000 A 
ATOM      2  C   UNL     1       2.201   2.437  -0.049  0.00  0.00    +0.000 A 
ATOM      3  C   UNL     1       2.659   3.676   0.320  0.00  0.00    +0.000 A 
ATOM      4  C   UNL     1       3.507   3.833   1.416  0.00  0.00    +0.000 A 
ATOM      5  C   UNL     1       3.873   5.266   1.644  0.00  0.00    +0.000 C 
ATOM      6  C   UNL     1       3.868   2.711   2.207  0.00  0.00    +0.000 A 
ATOM      7  C   UNL     1       3.419   1.433   1.768  0.00  0.00    +0.000 A 
ENDROOT
BRANCH   1   8
ATOM      8  C   UNL     1       2.129  -0.044   0.060  0.00  0.00    +0.000 C 
ATOM      9  O   UNL     1       2.587  -1.117   0.885  0.00  0.00    +0.000 OA
ATOM     10  C   UNL     1       2.098  -2.402   0.480  0.00  0.00    +0.000 C 
ATOM     11  C   UNL     1       2.601  -2.736  -0.935  0.00  0.00    +0.000 C 
ATOM     12  C   UNL     1       2.200  -1.626  -1.914  0.00  0.00    +0.000 C 
ATOM     13  C   UNL     1       2.623  -0.246  -1.401  0.00  0.00    +0.000 C 
BRANCH  11  14
ATOM     14  O   UNL     1       2.114  -4.004  -1.378  0.00  0.00    +0.000 OA
ATOM     15  H   UNL     1       1.151  -3.936  -1.508  0.00  0.00    +0.000 HD
ENDBRANCH  11  14
BRANCH  12  16
ATOM     16  O   UNL     1       2.771  -1.869  -3.208  0.00  0.00    +0.000 OA
ATOM     17  H   UNL     1       3.728  -1.704  -3.153  0.00  0.00    +0.000 HD
ENDBRANCH  12  16
BRANCH  13  18
ATOM     18  O   UNL     1       2.116   0.728  -2.328  0.00  0.00    +0.000 OA
ATOM     19  H   UNL     1       1.144   0.699  -2.308  0.00  0.00    +0.000 HD
ENDBRANCH  13  18
BRANCH  10  20
ATOM     20  C   UNL     1       2.609  -3.417   1.512  0.00  0.00    +0.000 C 
BRANCH  20  21
ATOM     21  O   UNL     1       1.881  -4.637   1.493  0.00  0.00    +0.000 OA
ATOM     22  H   UNL     1       2.403  -5.276   0.973  0.00  0.00    +0.000 HD
ENDBRANCH  20  21
ENDBRANCH  10  20
ENDBRANCH   1   8
BRANCH   6  23
ATOM     23  C   UNL     1       4.707   2.739   3.503  0.00  0.00    +0.000 C 
BRANCH  23  24
ATOM     24  C   UNL     1       4.954   4.101   4.101  0.00  0.00    +0.000 A 
ATOM     25  C   UNL     1       3.990   4.963   4.588  0.00  0.00    +0.000 A 
ATOM     26  C   UNL     1       4.471   6.297   4.654  0.00  0.00    +0.000 A 
ATOM     27  C   UNL     1       5.842   6.377   4.496  0.00  0.00    +0.000 A 
ATOM     28  S   UNL     1       6.513   4.837   4.142  0.00  0.00    +0.000 S 
BRANCH  27  29
ATOM     29  C   UNL     1       6.654   7.577   4.693  0.00  0.00    +0.000 A 
ATOM     30  C   UNL     1       6.485   8.271   5.904  0.00  0.00    +0.000 A 
ATOM     31  C   UNL     1       7.192   9.434   6.175  0.00  0.00    +0.000 A 
ATOM     32  C   UNL     1       8.079   9.924   5.224  0.00  0.00    +0.000 A 
ATOM     33  F   UNL     1       8.773  11.034   5.488  0.00  0.00    +0.000 F 
ATOM     34  C   UNL     1       8.247   9.271   4.003  0.00  0.00    +0.000 A 
ATOM     35  C   UNL     1       7.532   8.100   3.730  0.00  0.00    +0.000 A 
ENDBRANCH  27  29
ENDBRANCH  23  24
ENDBRANCH   6  23
TORSDOF 9
