REMARK  Name = Candesartan cilexetil
REMARK  15 active torsions:
REMARK  status: ('A' for Active; 'I' for Inactive)
REMARK    1  A    between atoms: C_1  and  C_2
REMARK    2  A    between atoms: C_2  and  O_3
REMARK    3  A    between atoms: O_3  and  C_4
REMARK    4  A    between atoms: N_8  and  C_9
REMARK    5  A    between atoms: C_9  and  C_10
REMARK    6  A    between atoms: C_13  and  C_16
REMARK    7  A    between atoms: C_21  and  C_22
REMARK    8  A    between atoms: C_27  and  C_31
REMARK    9  A    between atoms: C_31  and  O_33
REMARK   10  A    between atoms: O_33  and  C_34
REMARK   11  A    between atoms: C_34  and  C_35
REMARK   12  A    between atoms: C_34  and  O_36
REMARK   13  A    between atoms: O_36  and  C_37
REMARK   14  A    between atoms: C_37  and  O_39
REMARK   15  A    between atoms: O_39  and  C_40
REMARK                            x       y       z     vdW  Elec       q    Type
REMARK                         _______ _______ _______ _____ _____    ______ ____
ROOT
ATOM      1  C   UNL     1       4.450   1.169   0.913  0.00  0.00    +0.000 A 
ATOM      2  N   UNL     1       5.372   1.191  -0.018  0.00  0.00    +0.000 NA
ATOM      3  C   UNL     1       6.558   1.399   0.645  0.00  0.00    +0.000 A 
ATOM      4  C   UNL     1       6.393   1.466   2.036  0.00  0.00    +0.000 A 
ATOM      5  N   UNL     1       5.009   1.306   2.176  0.00  0.00    +0.000 N 
ATOM      6  C   UNL     1       7.506   1.661   2.921  0.00  0.00    +0.000 A 
ATOM      7  C   UNL     1       8.771   1.785   2.312  0.00  0.00    +0.000 A 
ATOM      8  C   UNL     1       8.933   1.739   0.925  0.00  0.00    +0.000 A 
ATOM      9  C   UNL     1       7.836   1.548   0.083  0.00  0.00    +0.000 A 
ENDROOT
BRANCH   6  10
ATOM     10  C   UNL     1       7.385   1.773   4.415  0.00  0.00    +0.000 C 
ATOM     11  O   UNL     1       6.309   1.807   4.984  0.00  0.00    +0.000 OA
BRANCH  10  12
ATOM     12  O   UNL     1       8.563   1.835   5.103  0.00  0.00    +0.000 OA
BRANCH  12  13
ATOM     13  C   UNL     1       8.399   1.895   6.559  0.00  0.00    +0.000 C 
ATOM     14  C   UNL     1       7.773   0.580   7.066  0.00  0.00    +0.000 C 
BRANCH  13  15
ATOM     15  O   UNL     1       9.693   2.081   7.195  0.00  0.00    +0.000 OA
BRANCH  15  16
ATOM     16  C   UNL     1       9.610   2.329   8.540  0.00  0.00    +0.000 C 
ATOM     17  O   UNL     1       8.569   2.468   9.145  0.00  0.00    +0.000 OA
BRANCH  16  18
ATOM     18  O   UNL     1      10.862   2.351   9.096  0.00  0.00    +0.000 OA
BRANCH  18  19
ATOM     19  C   UNL     1      10.982   2.471  10.548  0.00  0.00    +0.000 C 
ATOM     20  C   UNL     1      10.709   3.902  11.033  0.00  0.00    +0.000 C 
ATOM     21  C   UNL     1      10.704   4.022  12.560  0.00  0.00    +0.000 C 
ATOM     22  C   UNL     1       9.762   3.009  13.201  0.00  0.00    +0.000 C 
ATOM     23  C   UNL     1      10.149   1.588  12.804  0.00  0.00    +0.000 C 
ATOM     24  C   UNL     1      10.139   1.423  11.293  0.00  0.00    +0.000 C 
ENDBRANCH  18  19
ENDBRANCH  16  18
ENDBRANCH  15  16
ENDBRANCH  13  15
ENDBRANCH  12  13
ENDBRANCH  10  12
ENDBRANCH   6  10
BRANCH   1  25
ATOM     25  O   UNL     1       3.134   1.128   0.660  0.00  0.00    +0.000 OA
BRANCH  25  27
ATOM     26  C   UNL     1       1.177   0.114  -0.431  0.00  0.00    +0.000 C 
ATOM     27  C   UNL     1       2.697   0.084  -0.226  0.00  0.00    +0.000 C 
ENDBRANCH  25  27
ENDBRANCH   1  25
BRANCH   5  28
ATOM     28  C   UNL     1       4.335   1.263   3.472  0.00  0.00    +0.000 C 
BRANCH  28  29
ATOM     29  C   UNL     1       2.869   1.015   3.458  0.00  0.00    +0.000 A 
ATOM     30  C   UNL     1       2.402  -0.199   2.980  0.00  0.00    +0.000 A 
ATOM     31  C   UNL     1       1.069  -0.294   2.650  0.00  0.00    +0.000 A 
ATOM     32  C   UNL     1       0.170   0.777   2.843  0.00  0.00    +0.000 A 
ATOM     33  C   UNL     1       0.618   1.870   3.584  0.00  0.00    +0.000 A 
ATOM     34  C   UNL     1       1.972   2.012   3.852  0.00  0.00    +0.000 A 
BRANCH  32  35
ATOM     35  C   UNL     1      -1.210   0.748   2.305  0.00  0.00    +0.000 A 
ATOM     36  C   UNL     1      -1.736   1.863   1.613  0.00  0.00    +0.000 A 
ATOM     37  C   UNL     1      -3.094   1.933   1.301  0.00  0.00    +0.000 A 
ATOM     38  C   UNL     1      -3.908   0.828   1.523  0.00  0.00    +0.000 A 
ATOM     39  C   UNL     1      -3.359  -0.355   2.018  0.00  0.00    +0.000 A 
ATOM     40  C   UNL     1      -2.037  -0.383   2.472  0.00  0.00    +0.000 A 
BRANCH  40  41
ATOM     41  C   UNL     1      -1.547  -1.559   3.175  0.00  0.00    +0.000 A 
ATOM     42  N   UNL     1      -1.295  -2.761   2.697  0.00  0.00    +0.000 NA
ATOM     43  N   UNL     1      -0.601  -3.427   3.683  0.00  0.00    +0.000 NA
ATOM     44  N   UNL     1      -0.438  -2.662   4.755  0.00  0.00    +0.000 NA
ATOM     45  N   UNL     1      -1.041  -1.508   4.449  0.00  0.00    +0.000 N 
ATOM     46  H   UNL     1      -0.960  -0.710   5.066  0.00  0.00    +0.000 HD
ENDBRANCH  40  41
ENDBRANCH  32  35
ENDBRANCH  28  29
ENDBRANCH   5  28
TORSDOF 13
