REMARK  Name = Cannabidiol
REMARK  11 active torsions:
REMARK  status: ('A' for Active; 'I' for Inactive)
REMARK    1  A    between atoms: C_1  and  C_2
REMARK    2  A    between atoms: C_2  and  C_3
REMARK    3  A    between atoms: C_3  and  C_4
REMARK    4  A    between atoms: C_4  and  C_5
REMARK    5  A    between atoms: C_5  and  C_6
REMARK    6  A    between atoms: C_8  and  O_9
REMARK    7  A    between atoms: C_10  and  C_11
REMARK    8  A    between atoms: C_13  and  C_14
REMARK    9  A    between atoms: C_17  and  C_18
REMARK   10  A    between atoms: C_18  and  C_19
REMARK   11  A    between atoms: C_21  and  O_22
REMARK                            x       y       z     vdW  Elec       q    Type
REMARK                         _______ _______ _______ _____ _____    ______ ____
ROOT
ATOM      1  C   UNL     1       6.565   2.821  -0.764  0.00  0.00    +0.000 A 
ATOM      2  C   UNL     1       7.234   2.553  -1.946  0.00  0.00    +0.000 A 
ATOM      3  C   UNL     1       8.615   2.641  -1.978  0.00  0.00    +0.000 A 
ATOM      4  C   UNL     1       9.403   2.839  -0.820  0.00  0.00    +0.000 A 
ATOM      5  C   UNL     1       8.698   3.082   0.371  0.00  0.00    +0.000 A 
ATOM      6  C   UNL     1       7.299   3.097   0.391  0.00  0.00    +0.000 A 
ENDROOT
BRANCH   4   7
ATOM      7  C   UNL     1      10.933   2.787  -0.887  0.00  0.00    +0.000 C 
ATOM      8  C   UNL     1      11.465   3.800  -1.866  0.00  0.00    +0.000 C 
ATOM      9  C   UNL     1      11.903   3.460  -3.092  0.00  0.00    +0.000 C 
ATOM     10  C   UNL     1      12.412   4.488  -4.049  0.00  0.00    +0.000 C 
ATOM     11  C   UNL     1      11.877   2.030  -3.614  0.00  0.00    +0.000 C 
ATOM     12  C   UNL     1      11.348   0.954  -2.636  0.00  0.00    +0.000 C 
ATOM     13  C   UNL     1      11.519   1.355  -1.159  0.00  0.00    +0.000 C 
BRANCH  13  14
ATOM     14  C   UNL     1      12.993   1.246  -0.714  0.00  0.00    +0.000 C 
ATOM     15  C   UNL     1      14.096   1.262  -1.741  0.00  0.00    +0.000 C 
ATOM     16  C   UNL     1      13.330   1.156   0.588  0.00  0.00    +0.000 C 
ENDBRANCH  13  14
ENDBRANCH   4   7
BRANCH   3  17
ATOM     17  O   UNL     1       9.165   2.617  -3.226  0.00  0.00    +0.000 OA
ATOM     18  H   UNL     1       8.628   2.069  -3.818  0.00  0.00    +0.000 HD
ENDBRANCH   3  17
BRANCH   5  19
ATOM     19  O   UNL     1       9.266   3.345   1.588  0.00  0.00    +0.000 OA
ATOM     20  H   UNL     1      10.230   3.377   1.526  0.00  0.00    +0.000 HD
ENDBRANCH   5  19
BRANCH   1  21
ATOM     21  C   UNL     1       5.070   2.807  -0.760  0.00  0.00    +0.000 C 
BRANCH  21  22
ATOM     22  C   UNL     1       4.564   1.410  -0.431  0.00  0.00    +0.000 C 
BRANCH  22  23
ATOM     23  C   UNL     1       3.045   1.396  -0.436  0.00  0.00    +0.000 C 
BRANCH  23  25
ATOM     24  C   UNL     1       1.005   0.000  -0.090  0.00  0.00    +0.000 C 
ATOM     25  C   UNL     1       2.521   0.009  -0.091  0.00  0.00    +0.000 C 
ENDBRANCH  23  25
ENDBRANCH  22  23
ENDBRANCH  21  22
ENDBRANCH   1  21
TORSDOF 8
