REMARK  Name = Canrenoic acid
REMARK  7 active torsions:
REMARK  status: ('A' for Active; 'I' for Inactive)
REMARK    1  A    between atoms: C_5  and  O_6
REMARK    2  A    between atoms: C_5  and  C_7
REMARK    3  A    between atoms: C_7  and  C_8
REMARK    4  A    between atoms: C_8  and  C_9
REMARK    5  A    between atoms: C_9  and  O_10
REMARK    6  A    between atoms: C_12  and  C_13
REMARK    7  A    between atoms: C_28  and  C_29
REMARK                            x       y       z     vdW  Elec       q    Type
REMARK                         _______ _______ _______ _____ _____    ______ ____
ROOT
ATOM      1  C   UNL     1       1.742  -0.008   0.109  0.00  0.00    +0.000 C 
ATOM      2  C   UNL     1       2.135  -0.112   1.469  0.00  0.00    +0.000 C 
ATOM      3  C   UNL     1       3.162   0.336   0.506  0.00  0.00    +0.000 C 
ATOM      4  C   UNL     1       2.382   0.941  -1.355  0.00  0.00    +0.000 C 
ATOM      5  C   UNL     1       2.635   1.637  -0.171  0.00  0.00    +0.000 C 
ATOM      6  C   UNL     1       1.989   2.841   0.368  0.00  0.00    +0.000 C 
ATOM      7  C   UNL     1       4.430   1.604  -0.702  0.00  0.00    +0.000 C 
ATOM      8  C   UNL     1       4.794   0.157  -1.574  0.00  0.00    +0.000 C 
ATOM      9  C   UNL     1       4.224  -1.296  -1.068  0.00  0.00    +0.000 C 
ATOM     10  C   UNL     1       2.490  -1.326  -0.911  0.00  0.00    +0.000 C 
ATOM     11  C   UNL     1       1.974  -2.612  -0.402  0.00  0.00    +0.000 C 
ATOM     12  C   UNL     1       2.728  -3.709  -0.357  0.00  0.00    +0.000 C 
ATOM     13  C   UNL     1       4.055  -3.809  -0.934  0.00  0.00    +0.000 C 
ATOM     14  C   UNL     1       4.734  -4.957  -0.821  0.00  0.00    +0.000 C 
ATOM     15  C   UNL     1       5.943  -5.000  -1.646  0.00  0.00    +0.000 C 
ATOM     16  O   UNL     1       5.968  -5.091  -2.871  0.00  0.00    +0.000 OA
ATOM     17  C   UNL     1       7.075  -4.403  -0.980  0.00  0.00    +0.000 C 
ATOM     18  C   UNL     1       6.471  -2.866  -1.427  0.00  0.00    +0.000 C 
ATOM     19  C   UNL     1       4.731  -2.640  -1.683  0.00  0.00    +0.000 C 
ATOM     20  C   UNL     1       4.148  -2.590  -3.116  0.00  0.00    +0.000 C 
ENDROOT
BRANCH   4  21
ATOM     21  O   UNL     1       2.702   2.114  -2.212  0.00  0.00    +0.000 OA
ATOM     22  H   UNL     1       3.557   2.200  -2.654  0.00  0.00    +0.000 HD
ENDBRANCH   4  21
BRANCH   4  23
ATOM     23  C   UNL     1       0.684   1.209  -1.790  0.00  0.00    +0.000 C 
BRANCH  23  24
ATOM     24  C   UNL     1       0.094   0.828  -3.199  0.00  0.00    +0.000 C 
BRANCH  24  25
ATOM     25  C   UNL     1      -1.454   0.876  -3.318  0.00  0.00    +0.000 C 
ATOM     26  O   UNL     1      -2.053   0.464  -4.306  0.00  0.00    +0.000 OA
BRANCH  25  27
ATOM     27  O   UNL     1      -2.156   1.408  -2.296  0.00  0.00    +0.000 OA
ATOM     28  H   UNL     1      -1.664   1.778  -1.545  0.00  0.00    +0.000 HD
ENDBRANCH  25  27
ENDBRANCH  24  25
ENDBRANCH  23  24
ENDBRANCH   4  23
TORSDOF 5
