REMARK  Name = Cantharidin
REMARK  2 active torsions:
REMARK  status: ('A' for Active; 'I' for Inactive)
REMARK    1  A    between atoms: C_8  and  C_9
REMARK    2  A    between atoms: C_15  and  C_16
REMARK                            x       y       z     vdW  Elec       q    Type
REMARK                         _______ _______ _______ _____ _____    ______ ____
ROOT
ATOM      1  C   UNL     1       2.158   0.027   0.248  0.00  0.00    +0.000 C 
ATOM      2  C   UNL     1       2.744  -1.269   0.801  0.00  0.00    +0.000 C 
ATOM      3  C   UNL     1       4.100  -1.365   0.095  0.00  0.00    +0.000 C 
ATOM      4  C   UNL     1       4.154  -0.030  -0.656  0.00  0.00    +0.000 C 
ATOM      5  O   UNL     1       2.772   0.021  -1.093  0.00  0.00    +0.000 OA
ATOM      6  C   UNL     1       4.191   1.230   0.226  0.00  0.00    +0.000 C 
ATOM      7  C   UNL     1       4.547   2.528  -0.505  0.00  0.00    +0.000 C 
ATOM      8  C   UNL     1       4.914   1.025   1.540  0.00  0.00    +0.000 C 
ATOM      9  O   UNL     1       5.500   0.054   1.984  0.00  0.00    +0.000 OA
ATOM     10  O   UNL     1       4.400   1.943   2.371  0.00  0.00    +0.000 OA
ATOM     11  C   UNL     1       3.066   1.739   2.243  0.00  0.00    +0.000 C 
ATOM     12  O   UNL     1       2.282   2.004   3.146  0.00  0.00    +0.000 OA
ATOM     13  C   UNL     1       2.745   1.344   0.793  0.00  0.00    +0.000 C 
ATOM     14  C   UNL     1       1.852   2.501   0.302  0.00  0.00    +0.000 C 
ENDROOT
TORSDOF 0
