REMARK  Name = Capecitabine
REMARK  10 active torsions:
REMARK  status: ('A' for Active; 'I' for Inactive)
REMARK    1  A    between atoms: C_1  and  C_2
REMARK    2  A    between atoms: C_2  and  C_3
REMARK    3  A    between atoms: C_3  and  C_4
REMARK    4  A    between atoms: C_4  and  C_5
REMARK    5  A    between atoms: C_5  and  O_6
REMARK    6  A    between atoms: O_6  and  C_7
REMARK    7  A    between atoms: N_14  and  C_18
REMARK    8  A    between atoms: C_20  and  C_21
REMARK    9  A    between atoms: C_22  and  O_23
REMARK   10  A    between atoms: C_24  and  O_25
REMARK                            x       y       z     vdW  Elec       q    Type
REMARK                         _______ _______ _______ _____ _____    ______ ____
ROOT
ATOM      1  C   UNL     1       7.174  -1.603  -3.761  0.00  0.00    +0.000 C 
ATOM      2  O   UNL     1       6.473  -2.050  -4.662  0.00  0.00    +0.000 OA
ATOM      3  N   UNL     1       8.567  -1.617  -3.775  0.00  0.00    +0.000 N 
ATOM      4  C   UNL     1       9.360  -2.041  -4.841  0.00  0.00    +0.000 A 
ATOM      5  N   UNL     1      10.464  -2.687  -4.618  0.00  0.00    +0.000 NA
ATOM      6  C   UNL     1      11.205  -3.158  -5.706  0.00  0.00    +0.000 A 
ATOM      7  O   UNL     1      12.186  -3.888  -5.526  0.00  0.00    +0.000 OA
ATOM      8  N   UNL     1      10.822  -2.794  -7.011  0.00  0.00    +0.000 N 
ATOM      9  C   UNL     1       9.688  -2.034  -7.210  0.00  0.00    +0.000 A 
ATOM     10  C   UNL     1       8.915  -1.667  -6.195  0.00  0.00    +0.000 A 
ATOM     11  F   UNL     1       7.879  -0.829  -6.353  0.00  0.00    +0.000 F 
ATOM     12  H   UNL     1       9.015  -1.535  -2.874  0.00  0.00    +0.000 HD
ENDROOT
BRANCH   8  13
ATOM     13  C   UNL     1      11.600  -3.266  -8.173  0.00  0.00    +0.000 C 
ATOM     14  O   UNL     1      12.098  -2.142  -8.944  0.00  0.00    +0.000 OA
ATOM     15  C   UNL     1      12.159  -2.521 -10.345  0.00  0.00    +0.000 C 
ATOM     16  C   UNL     1      11.329  -1.538 -11.167  0.00  0.00    +0.000 C 
ATOM     17  C   UNL     1      11.634  -3.958 -10.450  0.00  0.00    +0.000 C 
ATOM     18  C   UNL     1      10.798  -4.105  -9.185  0.00  0.00    +0.000 C 
BRANCH  17  19
ATOM     19  O   UNL     1      12.708  -4.910 -10.455  0.00  0.00    +0.000 OA
ATOM     20  H   UNL     1      13.352  -4.683  -9.762  0.00  0.00    +0.000 HD
ENDBRANCH  17  19
BRANCH  18  21
ATOM     21  O   UNL     1      10.593  -5.454  -8.794  0.00  0.00    +0.000 OA
ATOM     22  H   UNL     1      11.458  -5.905  -8.812  0.00  0.00    +0.000 HD
ENDBRANCH  18  21
ENDBRANCH   8  13
BRANCH   1  23
ATOM     23  O   UNL     1       6.641  -1.107  -2.591  0.00  0.00    +0.000 OA
BRANCH  23  24
ATOM     24  C   UNL     1       5.183  -1.112  -2.572  0.00  0.00    +0.000 C 
BRANCH  24  25
ATOM     25  C   UNL     1       4.618  -0.558  -1.254  0.00  0.00    +0.000 C 
BRANCH  25  26
ATOM     26  C   UNL     1       3.078  -0.549  -1.231  0.00  0.00    +0.000 C 
BRANCH  26  28
ATOM     27  C   UNL     1       1.006   0.013   0.101  0.00  0.00    +0.000 C 
ATOM     28  C   UNL     1       2.528   0.007   0.087  0.00  0.00    +0.000 C 
ENDBRANCH  26  28
ENDBRANCH  25  26
ENDBRANCH  24  25
ENDBRANCH  23  24
ENDBRANCH   1  23
TORSDOF 8
