REMARK  Name = Capmatinib
REMARK  5 active torsions:
REMARK  status: ('A' for Active; 'I' for Inactive)
REMARK    1  A    between atoms: C_1  and  N_2
REMARK    2  A    between atoms: C_3  and  C_5
REMARK    3  A    between atoms: C_9  and  C_12
REMARK    4  A    between atoms: C_15  and  C_16
REMARK    5  A    between atoms: C_16  and  C_17
REMARK                            x       y       z     vdW  Elec       q    Type
REMARK                         _______ _______ _______ _____ _____    ______ ____
ROOT
ATOM      1  C   UNL     1       8.910   0.115  -1.218  0.00  0.00    +0.000 A 
ATOM      2  N   UNL     1       9.564  -0.924  -1.673  0.00  0.00    +0.000 NA
ATOM      3  N   UNL     1      10.951  -0.837  -1.587  0.00  0.00    +0.000 N 
ATOM      4  C   UNL     1      11.907  -1.756  -1.987  0.00  0.00    +0.000 A 
ATOM      5  C   UNL     1      13.114  -1.177  -1.671  0.00  0.00    +0.000 A 
ATOM      6  N   UNL     1      12.947   0.038  -1.094  0.00  0.00    +0.000 NA
ATOM      7  C   UNL     1      11.638   0.248  -1.047  0.00  0.00    +0.000 A 
ATOM      8  N   UNL     1      10.934   1.325  -0.566  0.00  0.00    +0.000 NA
ATOM      9  C   UNL     1       9.640   1.282  -0.645  0.00  0.00    +0.000 A 
ENDROOT
BRANCH   1  14
ATOM     10  C   UNL     1       4.591   0.191  -1.261  0.00  0.00    +0.000 A 
ATOM     11  C   UNL     1       5.297  -0.781  -0.590  0.00  0.00    +0.000 A 
ATOM     12  F   UNL     1       4.637  -1.734   0.066  0.00  0.00    +0.000 F 
ATOM     13  C   UNL     1       6.690  -0.793  -0.567  0.00  0.00    +0.000 A 
ATOM     14  C   UNL     1       7.422   0.178  -1.228  0.00  0.00    +0.000 A 
ATOM     15  C   UNL     1       6.736   1.163  -1.920  0.00  0.00    +0.000 A 
ATOM     16  C   UNL     1       5.334   1.152  -1.951  0.00  0.00    +0.000 A 
BRANCH  10  19
ATOM     17  C   UNL     1       0.936  -0.038  -0.025  0.00  0.00    +0.000 C 
ATOM     18  N   UNL     1       2.397  -0.029  -0.062  0.00  0.00    +0.000 N 
ATOM     19  C   UNL     1       3.086   0.182  -1.268  0.00  0.00    +0.000 C 
ATOM     20  O   UNL     1       2.503   0.379  -2.331  0.00  0.00    +0.000 OA
ATOM     21  H   UNL     1       2.882  -0.189   0.815  0.00  0.00    +0.000 HD
ENDBRANCH  10  19
ENDBRANCH   1  14
BRANCH   4  22
ATOM     22  C   UNL     1      11.708  -3.084  -2.620  0.00  0.00    +0.000 C 
BRANCH  22  23
ATOM     23  C   UNL     1      13.025  -3.778  -2.900  0.00  0.00    +0.000 A 
ATOM     24  C   UNL     1      13.922  -4.070  -1.868  0.00  0.00    +0.000 A 
ATOM     25  C   UNL     1      15.223  -4.730  -2.110  0.00  0.00    +0.000 A 
ATOM     26  C   UNL     1      15.590  -4.748  -3.414  0.00  0.00    +0.000 A 
ATOM     27  C   UNL     1      14.801  -4.247  -4.393  0.00  0.00    +0.000 A 
ATOM     28  C   UNL     1      13.448  -4.092  -4.167  0.00  0.00    +0.000 A 
ATOM     29  N   UNL     1      16.715  -5.286  -3.815  0.00  0.00    +0.000 NA
ATOM     30  C   UNL     1      17.398  -5.777  -2.844  0.00  0.00    +0.000 A 
ATOM     31  C   UNL     1      18.123  -6.278  -1.901  0.00  0.00    +0.000 A 
ATOM     32  C   UNL     1      16.431  -5.442  -1.356  0.00  0.00    +0.000 A 
ENDBRANCH  22  23
ENDBRANCH   4  22
TORSDOF 4
