REMARK  Name = Capsaicin
REMARK  13 active torsions:
REMARK  status: ('A' for Active; 'I' for Inactive)
REMARK    1  A    between atoms: C_1  and  O_2
REMARK    2  A    between atoms: O_2  and  C_3
REMARK    3  A    between atoms: C_4  and  O_5
REMARK    4  A    between atoms: C_8  and  C_9
REMARK    5  A    between atoms: C_9  and  N_10
REMARK    6  A    between atoms: C_11  and  C_13
REMARK    7  A    between atoms: C_13  and  C_14
REMARK    8  A    between atoms: C_14  and  C_15
REMARK    9  A    between atoms: C_15  and  C_16
REMARK   10  A    between atoms: C_16  and  C_17
REMARK   11  A    between atoms: C_18  and  C_19
REMARK   12  A    between atoms: C_19  and  C_20
REMARK   13  A    between atoms: C_19  and  C_21
REMARK                            x       y       z     vdW  Elec       q    Type
REMARK                         _______ _______ _______ _____ _____    ______ ____
ROOT
ATOM      1  N   UNL     1       0.934   4.913   0.063  0.00  0.00    +0.000 N 
ATOM      2  C   UNL     1       0.184   6.059   0.072  0.00  0.00    +0.000 C 
ATOM      3  O   UNL     1       0.688   7.179   0.053  0.00  0.00    +0.000 OA
ATOM      4  H   UNL     1       0.437   4.040   0.080  0.00  0.00    +0.000 HD
ENDROOT
BRANCH   1   5
ATOM      5  C   UNL     1       2.389   4.954   0.031  0.00  0.00    +0.000 C 
BRANCH   5  10
ATOM      6  C   UNL     1       3.013   1.155   0.037  0.00  0.00    +0.000 A 
ATOM      7  C   UNL     1       4.407   1.128   0.023  0.00  0.00    +0.000 A 
ATOM      8  C   UNL     1       5.144   2.306   0.000  0.00  0.00    +0.000 A 
ATOM      9  C   UNL     1       4.482   3.540  -0.003  0.00  0.00    +0.000 A 
ATOM     10  C   UNL     1       3.078   3.604   0.025  0.00  0.00    +0.000 A 
ATOM     11  C   UNL     1       2.370   2.393   0.046  0.00  0.00    +0.000 A 
BRANCH   6  13
ATOM     12  C   UNL     1       0.938   0.002   0.028  0.00  0.00    +0.000 C 
ATOM     13  O   UNL     1       2.366  -0.056   0.043  0.00  0.00    +0.000 OA
ENDBRANCH   6  13
BRANCH   7  14
ATOM     14  O   UNL     1       5.087  -0.058   0.033  0.00  0.00    +0.000 OA
ATOM     15  H   UNL     1       4.402  -0.754   0.061  0.00  0.00    +0.000 HD
ENDBRANCH   7  14
ENDBRANCH   5  10
ENDBRANCH   1   5
BRANCH   2  16
ATOM     16  C   UNL     1      -1.317   5.809   0.107  0.00  0.00    +0.000 C 
BRANCH  16  17
ATOM     17  C   UNL     1      -2.065   7.138   0.114  0.00  0.00    +0.000 C 
BRANCH  17  18
ATOM     18  C   UNL     1      -3.576   6.959   0.147  0.00  0.00    +0.000 C 
BRANCH  18  19
ATOM     19  C   UNL     1      -4.266   8.324   0.146  0.00  0.00    +0.000 C 
BRANCH  19  20
ATOM     20  C   UNL     1      -5.753   8.168   0.166  0.00  0.00    +0.000 C 
ATOM     21  C   UNL     1      -6.594   9.212   0.188  0.00  0.00    +0.000 C 
BRANCH  21  22
ATOM     22  C   UNL     1      -8.092   9.053   0.251  0.00  0.00    +0.000 C 
ATOM     23  C   UNL     1      -8.510   8.280   1.504  0.00  0.00    +0.000 C 
ATOM     24  C   UNL     1      -8.777  10.419   0.235  0.00  0.00    +0.000 C 
ENDBRANCH  21  22
ENDBRANCH  19  20
ENDBRANCH  18  19
ENDBRANCH  17  18
ENDBRANCH  16  17
ENDBRANCH   2  16
TORSDOF 10
