REMARK  Name = Captopril
REMARK  6 active torsions:
REMARK  status: ('A' for Active; 'I' for Inactive)
REMARK    1  A    between atoms: C_1  and  C_2
REMARK    2  A    between atoms: C_2  and  C_3
REMARK    3  A    between atoms: C_2  and  C_5
REMARK    4  A    between atoms: C_3  and  S_4
REMARK    5  A    between atoms: C_11  and  C_12
REMARK    6  A    between atoms: C_12  and  O_13
REMARK                            x       y       z     vdW  Elec       q    Type
REMARK                         _______ _______ _______ _____ _____    ______ ____
ROOT
ATOM      1  C   UNL     1       3.192  -1.017   1.017  0.00  0.00    +0.000 C 
ATOM      2  O   UNL     1       2.442  -1.797   1.612  0.00  0.00    +0.000 OA
ATOM      3  N   UNL     1       4.552  -1.163   1.216  0.00  0.00    +0.000 N 
ATOM      4  C   UNL     1       5.597  -0.161   1.297  0.00  0.00    +0.000 C 
ATOM      5  C   UNL     1       6.772  -0.823   0.624  0.00  0.00    +0.000 C 
ATOM      6  C   UNL     1       6.692  -2.238   1.175  0.00  0.00    +0.000 C 
ATOM      7  C   UNL     1       5.178  -2.496   1.410  0.00  0.00    +0.000 C 
ENDROOT
BRANCH   1   9
ATOM      8  C   UNL     1       3.046   1.443   0.259  0.00  0.00    +0.000 C 
ATOM      9  C   UNL     1       2.632   0.006  -0.009  0.00  0.00    +0.000 C 
BRANCH   9  10
ATOM     10  C   UNL     1       1.080  -0.072  -0.059  0.00  0.00    +0.000 C 
BRANCH  10  11
ATOM     11  S   UNL     1       0.240   1.162  -1.139  0.00  0.00    +0.000 S 
ATOM     12  H   UNL     1       0.897   0.902  -2.279  0.00  0.00    +0.000 HD
ENDBRANCH  10  11
ENDBRANCH   9  10
ENDBRANCH   1   9
BRANCH   7  13
ATOM     13  C   UNL     1       5.018  -3.138   2.798  0.00  0.00    +0.000 C 
ATOM     14  O   UNL     1       5.547  -4.204   3.105  0.00  0.00    +0.000 OA
BRANCH  13  15
ATOM     15  O   UNL     1       4.308  -2.415   3.689  0.00  0.00    +0.000 OA
ATOM     16  H   UNL     1       3.823  -1.689   3.243  0.00  0.00    +0.000 HD
ENDBRANCH  13  15
ENDBRANCH   7  13
TORSDOF 5
