REMARK  Name = Carbinoxamine
REMARK  8 active torsions:
REMARK  status: ('A' for Active; 'I' for Inactive)
REMARK    1  A    between atoms: C_1  and  N_2
REMARK    2  A    between atoms: N_2  and  C_3
REMARK    3  A    between atoms: N_2  and  C_4
REMARK    4  A    between atoms: C_4  and  C_5
REMARK    5  A    between atoms: C_5  and  O_6
REMARK    6  A    between atoms: O_6  and  C_7
REMARK    7  A    between atoms: C_7  and  C_8
REMARK    8  A    between atoms: C_7  and  C_15
REMARK                            x       y       z     vdW  Elec       q    Type
REMARK                         _______ _______ _______ _____ _____    ______ ____
ROOT
ATOM      1  C   UNL     1       6.333   0.361  -2.745  0.00  0.00    +0.000 C 
ENDROOT
BRANCH   1   2
ATOM      2  C   UNL     1       6.797  -0.996  -2.215  0.00  0.00    +0.000 A 
ATOM      3  C   UNL     1       6.241  -2.174  -2.751  0.00  0.00    +0.000 A 
ATOM      4  C   UNL     1       6.583  -3.420  -2.241  0.00  0.00    +0.000 A 
ATOM      5  C   UNL     1       7.482  -3.497  -1.182  0.00  0.00    +0.000 A 
ATOM      6 CL   UNL     1       7.884  -5.036  -0.528  0.00  0.00    +0.000 Cl
ATOM      7  C   UNL     1       8.048  -2.342  -0.640  0.00  0.00    +0.000 A 
ATOM      8  C   UNL     1       7.710  -1.089  -1.155  0.00  0.00    +0.000 A 
ENDBRANCH   1   2
BRANCH   1   9
ATOM      9  C   UNL     1       6.813   0.628  -4.169  0.00  0.00    +0.000 A 
ATOM     10  C   UNL     1       6.841   1.932  -4.657  0.00  0.00    +0.000 A 
ATOM     11  C   UNL     1       7.259   2.141  -5.971  0.00  0.00    +0.000 A 
ATOM     12  C   UNL     1       7.627   1.058  -6.758  0.00  0.00    +0.000 A 
ATOM     13  C   UNL     1       7.570  -0.205  -6.205  0.00  0.00    +0.000 A 
ATOM     14  N   UNL     1       7.172  -0.432  -4.941  0.00  0.00    +0.000 NA
ENDBRANCH   1   9
BRANCH   1  15
ATOM     15  O   UNL     1       4.889   0.455  -2.716  0.00  0.00    +0.000 OA
BRANCH  15  16
ATOM     16  C   UNL     1       4.386   0.266  -1.392  0.00  0.00    +0.000 C 
BRANCH  16  17
ATOM     17  C   UNL     1       2.860   0.191  -1.374  0.00  0.00    +0.000 C 
BRANCH  17  19
ATOM     18  C   UNL     1       0.882  -0.031  -0.024  0.00  0.00    +0.000 C 
ATOM     19  N   UNL     1       2.345  -0.057  -0.011  0.00  0.00    +0.000 NA
ATOM     20  C   UNL     1       2.802  -1.346   0.526  0.00  0.00    +0.000 C 
ENDBRANCH  17  19
ENDBRANCH  16  17
ENDBRANCH  15  16
ENDBRANCH   1  15
TORSDOF 6
