REMARK  Name = Carbidopa
REMARK  9 active torsions:
REMARK  status: ('A' for Active; 'I' for Inactive)
REMARK    1  A    between atoms: C_1  and  C_2
REMARK    2  A    between atoms: C_2  and  C_3
REMARK    3  A    between atoms: C_2  and  N_12
REMARK    4  A    between atoms: C_2  and  C_14
REMARK    5  A    between atoms: C_3  and  C_4
REMARK    6  A    between atoms: C_6  and  O_7
REMARK    7  A    between atoms: C_8  and  O_9
REMARK    8  A    between atoms: N_12  and  N_13
REMARK    9  A    between atoms: C_14  and  O_15
REMARK                            x       y       z     vdW  Elec       q    Type
REMARK                         _______ _______ _______ _____ _____    ______ ____
ROOT
ATOM      1  C   UNL     1       0.881   0.121   0.024  0.00  0.00    +0.000 C 
ATOM      2  C   UNL     1       2.415   0.035  -0.044  0.00  0.00    +0.000 C 
ENDROOT
BRANCH   2   3
ATOM      3  N   UNL     1       2.951   1.434  -0.011  0.00  0.00    +0.000 NA
ATOM      4  H   UNL     1       3.979   1.395   0.069  0.00  0.00    +0.000 HD
BRANCH   3   5
ATOM      5  N   UNL     1       2.535   2.240  -1.143  0.00  0.00    +0.000 NA
ATOM      6  H   UNL     1       1.519   2.353  -1.195  0.00  0.00    +0.000 HD
ATOM      7  H   UNL     1       2.844   1.876  -2.048  0.00  0.00    +0.000 HD
ENDBRANCH   3   5
ENDBRANCH   2   3
BRANCH   2   8
ATOM      8  C   UNL     1       3.029  -0.699   1.190  0.00  0.00    +0.000 C 
ATOM      9  O   UNL     1       4.246  -0.788   1.365  0.00  0.00    +0.000 OA
BRANCH   8  10
ATOM     10  O   UNL     1       2.178  -1.259   2.075  0.00  0.00    +0.000 OA
ATOM     11  H   UNL     1       1.224  -1.159   1.915  0.00  0.00    +0.000 HD
ENDBRANCH   8  10
ENDBRANCH   2   8
BRANCH   2  12
ATOM     12  C   UNL     1       2.918  -0.702  -1.321  0.00  0.00    +0.000 C 
BRANCH  12  13
ATOM     13  C   UNL     1       2.440  -2.130  -1.444  0.00  0.00    +0.000 A 
ATOM     14  C   UNL     1       1.092  -2.421  -1.722  0.00  0.00    +0.000 A 
ATOM     15  C   UNL     1       0.648  -3.735  -1.708  0.00  0.00    +0.000 A 
ATOM     16  C   UNL     1       1.556  -4.767  -1.512  0.00  0.00    +0.000 A 
ATOM     17  C   UNL     1       2.899  -4.501  -1.289  0.00  0.00    +0.000 A 
ATOM     18  C   UNL     1       3.342  -3.181  -1.242  0.00  0.00    +0.000 A 
BRANCH  15  19
ATOM     19  O   UNL     1      -0.673  -4.046  -1.869  0.00  0.00    +0.000 OA
ATOM     20  H   UNL     1      -1.184  -3.221  -1.938  0.00  0.00    +0.000 HD
ENDBRANCH  15  19
BRANCH  16  21
ATOM     21  O   UNL     1       1.142  -6.067  -1.543  0.00  0.00    +0.000 OA
ATOM     22  H   UNL     1       0.185  -6.023  -1.732  0.00  0.00    +0.000 HD
ENDBRANCH  16  21
ENDBRANCH  12  13
ENDBRANCH   2  12
TORSDOF 8
