REMARK  Name = Carbamide peroxide
REMARK  1 active torsions:
REMARK  status: ('A' for Active; 'I' for Inactive)
REMARK    1  A    between atoms: O_1  and  O_2
REMARK                            x       y       z     vdW  Elec       q    Type
REMARK                         _______ _______ _______ _____ _____    ______ ____
ROOT
ATOM      1  O   UNL     1       1.148   1.577  -0.284  0.00  0.00    +0.000 OA
ATOM      2  H   UNL     1       1.563   1.060  -1.014  0.00  0.00    +0.000 HD
ENDROOT
BRANCH   1   3
ATOM      3  O   UNL     1       2.387   1.896   0.427  0.00  0.00    +0.000 OA
ATOM      4  H   UNL     1       2.571   1.010   0.802  0.00  0.00    +0.000 HD
ENDBRANCH   1   3
TORSDOF 1
REMARK  Name = Carbamide peroxide
REMARK  1 active torsions:
REMARK  status: ('A' for Active; 'I' for Inactive)
REMARK    1  A    between atoms: O_1  and  O_2
REMARK                            x       y       z     vdW  Elec       q    Type
REMARK                         _______ _______ _______ _____ _____    ______ ____
ROOT
ATOM      1  N   UNL     1       0.891  -0.983   0.015  0.00  0.00    +0.000 N 
ATOM      2  C   UNL     1       2.238  -0.926  -0.193  0.00  0.00    +0.000 C 
ATOM      3  N   UNL     1       2.928  -0.981   0.976  0.00  0.00    +0.000 N 
ATOM      4  O   UNL     1       2.744  -0.526  -1.220  0.00  0.00    +0.000 OA
ATOM      5  H   UNL     1       0.592  -0.848   0.969  0.00  0.00    +0.000 HD
ATOM      6  H   UNL     1       0.342  -0.365  -0.582  0.00  0.00    +0.000 HD
ATOM      7  H   UNL     1       2.568  -1.504   1.759  0.00  0.00    +0.000 HD
ATOM      8  H   UNL     1       3.935  -0.871   0.916  0.00  0.00    +0.000 HD
ENDROOT
TORSDOF 0
