REMARK  Name = Carbamazepine
REMARK  0 active torsions:
REMARK  status: ('A' for Active; 'I' for Inactive)
REMARK                            x       y       z     vdW  Elec       q    Type
REMARK                         _______ _______ _______ _____ _____    ______ ____
ROOT
ATOM      1  N   UNL     1       1.106   0.083   0.166  0.00  0.00    +0.000 N 
ATOM      2  C   UNL     1       2.473  -0.060   0.042  0.00  0.00    +0.000 C 
ATOM      3  O   UNL     1       3.043  -0.978   0.629  0.00  0.00    +0.000 OA
ATOM      4  N   UNL     1       3.051   0.850  -0.837  0.00  0.00    +0.000 N 
ATOM      5  C   UNL     1       2.595   2.186  -0.904  0.00  0.00    +0.000 A 
ATOM      6  C   UNL     1       2.755   2.988   0.239  0.00  0.00    +0.000 A 
ATOM      7  C   UNL     1       2.273   4.292   0.252  0.00  0.00    +0.000 A 
ATOM      8  C   UNL     1       1.580   4.775  -0.854  0.00  0.00    +0.000 A 
ATOM      9  C   UNL     1       1.413   3.973  -1.989  0.00  0.00    +0.000 A 
ATOM     10  C   UNL     1       1.964   2.687  -2.048  0.00  0.00    +0.000 A 
ATOM     11  C   UNL     1       1.792   1.889  -3.268  0.00  0.00    +0.000 C 
ATOM     12  C   UNL     1       2.673   0.990  -3.737  0.00  0.00    +0.000 C 
ATOM     13  C   UNL     1       3.951   0.608  -3.107  0.00  0.00    +0.000 A 
ATOM     14  C   UNL     1       5.000   0.212  -3.954  0.00  0.00    +0.000 A 
ATOM     15  C   UNL     1       6.230  -0.186  -3.430  0.00  0.00    +0.000 A 
ATOM     16  C   UNL     1       6.424  -0.196  -2.051  0.00  0.00    +0.000 A 
ATOM     17  C   UNL     1       5.373   0.143  -1.190  0.00  0.00    +0.000 A 
ATOM     18  C   UNL     1       4.127   0.530  -1.707  0.00  0.00    +0.000 A 
ATOM     19  H   UNL     1       0.612  -0.670   0.626  0.00  0.00    +0.000 HD
ATOM     20  H   UNL     1       0.604   0.546  -0.583  0.00  0.00    +0.000 HD
ENDROOT
TORSDOF 0
