REMARK  Name = Carbenicillin
REMARK  9 active torsions:
REMARK  status: ('A' for Active; 'I' for Inactive)
REMARK    1  A    between atoms: C_4  and  C_5
REMARK    2  A    between atoms: C_4  and  C_6
REMARK    3  A    between atoms: CA_7  and  C_25
REMARK    4  A    between atoms: CA_11  and  N_12
REMARK    5  A    between atoms: C_13  and  C_15
REMARK    6  A    between atoms: C_15  and  C_16
REMARK    7  A    between atoms: C_15  and  C_19
REMARK    8  A    between atoms: C_16  and  O_17
REMARK    9  A    between atoms: C_25  and  O_26
REMARK                            x       y       z     vdW  Elec       q    Type
REMARK                         _______ _______ _______ _____ _____    ______ ____
ROOT
ATOM      1  N   UNL     1       3.394   1.852  -1.443  0.00  0.00    +0.000 N 
ATOM      2  C   UNL     1       3.905   3.124  -1.598  0.00  0.00    +0.000 C 
ATOM      3  O   UNL     1       3.893   3.908  -0.647  0.00  0.00    +0.000 OA
ATOM      4  H   UNL     1       3.297   1.250  -2.261  0.00  0.00    +0.000 HD
ENDROOT
BRANCH   1  14
ATOM      5  C   UNL     1       2.024   0.112  -0.083  0.00  0.00    +0.000 C 
ATOM      6  S   UNL     1       2.453  -1.151  -1.330  0.00  0.00    +0.000 S 
ATOM      7  C   UNL     1       2.798  -2.404   0.014  0.00  0.00    +0.000 C 
ATOM      8  C   UNL     1       3.739  -3.446  -0.596  0.00  0.00    +0.000 C 
ATOM      9  C   UNL     1       1.423  -2.992   0.380  0.00  0.00    +0.000 C 
ATOM     10  CA  UNL     1       3.483  -1.572   1.124  0.00  0.00    +0.000 C 
ATOM     11  N   UNL     1       2.860  -0.232   1.084  0.00  0.00    +0.000 N 
ATOM     12  C   UNL     1       3.628   0.900   0.965  0.00  0.00    +0.000 C 
ATOM     13  O   UNL     1       4.710   1.178   1.450  0.00  0.00    +0.000 OA
ATOM     14  CA  UNL     1       2.723   1.478  -0.155  0.00  0.00    +0.000 C 
BRANCH  10  15
ATOM     15  C   UNL     1       3.524  -2.124   2.570  0.00  0.00    +0.000 C 
ATOM     16  OXT UNL     1       3.973  -1.479   3.511  0.00  0.00    +0.000 OA
BRANCH  15  17
ATOM     17  O   UNL     1       3.081  -3.375   2.812  0.00  0.00    +0.000 OA
ATOM     18  H   UNL     1       2.916  -3.996   2.087  0.00  0.00    +0.000 HD
ENDBRANCH  15  17
ENDBRANCH  10  15
ENDBRANCH   1  14
BRANCH   2  19
ATOM     19  C   UNL     1       4.492   3.497  -2.975  0.00  0.00    +0.000 C 
BRANCH  19  20
ATOM     20  C   UNL     1       5.133   4.883  -2.893  0.00  0.00    +0.000 A 
ATOM     21  C   UNL     1       6.466   5.039  -2.475  0.00  0.00    +0.000 A 
ATOM     22  C   UNL     1       6.974   6.320  -2.237  0.00  0.00    +0.000 A 
ATOM     23  C   UNL     1       6.217   7.448  -2.554  0.00  0.00    +0.000 A 
ATOM     24  C   UNL     1       4.906   7.305  -2.981  0.00  0.00    +0.000 A 
ATOM     25  C   UNL     1       4.350   6.037  -3.052  0.00  0.00    +0.000 A 
ENDBRANCH  19  20
BRANCH  19  26
ATOM     26  C   UNL     1       3.460   3.287  -4.085  0.00  0.00    +0.000 C 
ATOM     27  O   UNL     1       2.838   2.231  -4.185  0.00  0.00    +0.000 OA
BRANCH  26  28
ATOM     28  O   UNL     1       3.250   4.256  -5.004  0.00  0.00    +0.000 OA
ATOM     29  H   UNL     1       3.812   5.054  -4.982  0.00  0.00    +0.000 HD
ENDBRANCH  26  28
ENDBRANCH  19  26
ENDBRANCH   2  19
TORSDOF 7
