REMARK  Name = Carboxin
REMARK  3 active torsions:
REMARK  status: ('A' for Active; 'I' for Inactive)
REMARK    1  A    between atoms: C_1  and  C_2
REMARK    2  A    between atoms: C_3  and  C_8
REMARK    3  A    between atoms: N_10  and  C_11
REMARK                            x       y       z     vdW  Elec       q    Type
REMARK                         _______ _______ _______ _____ _____    ______ ____
ROOT
ATOM      1  C   UNL     1       2.317   2.687   0.068  0.00  0.00    +0.000 C 
ATOM      2  O   UNL     1       3.023   3.710   0.012  0.00  0.00    +0.000 OA
ATOM      3  N   UNL     1       0.964   2.792   0.208  0.00  0.00    +0.000 N 
ATOM      4  H   UNL     1       0.403   2.044   0.560  0.00  0.00    +0.000 HD
ENDROOT
BRANCH   1   7
ATOM      5  C   UNL     1       0.945  -0.258   0.010  0.00  0.00    +0.000 C 
ATOM      6  C   UNL     1       2.416   0.078   0.054  0.00  0.00    +0.000 C 
ATOM      7  C   UNL     1       2.979   1.312   0.077  0.00  0.00    +0.000 C 
ATOM      8  S   UNL     1       4.709   1.551   0.114  0.00  0.00    +0.000 S 
ATOM      9  C   UNL     1       5.411  -0.058   0.007  0.00  0.00    +0.000 C 
ATOM     10  C   UNL     1       4.504  -1.261   0.024  0.00  0.00    +0.000 C 
ATOM     11  O   UNL     1       3.098  -1.113   0.074  0.00  0.00    +0.000 OA
ENDBRANCH   1   7
BRANCH   3  12
ATOM     12  C   UNL     1       0.264   3.993   0.108  0.00  0.00    +0.000 A 
ATOM     13  C   UNL     1      -0.896   4.120   0.869  0.00  0.00    +0.000 A 
ATOM     14  C   UNL     1      -1.668   5.264   0.738  0.00  0.00    +0.000 A 
ATOM     15  C   UNL     1      -1.250   6.281  -0.122  0.00  0.00    +0.000 A 
ATOM     16  C   UNL     1      -0.095   6.140  -0.890  0.00  0.00    +0.000 A 
ATOM     17  C   UNL     1       0.664   4.988  -0.779  0.00  0.00    +0.000 A 
ENDBRANCH   3  12
TORSDOF 2
