REMARK  Name = Carbocromen
REMARK  14 active torsions:
REMARK  status: ('A' for Active; 'I' for Inactive)
REMARK    1  A    between atoms: C_1  and  C_2
REMARK    2  A    between atoms: C_2  and  O_3
REMARK    3  A    between atoms: O_3  and  C_4
REMARK    4  A    between atoms: C_4  and  C_6
REMARK    5  A    between atoms: C_6  and  O_7
REMARK    6  A    between atoms: O_7  and  C_8
REMARK    7  A    between atoms: C_14  and  C_15
REMARK    8  A    between atoms: C_16  and  C_17
REMARK    9  A    between atoms: C_17  and  C_18
REMARK   10  A    between atoms: C_18  and  N_19
REMARK   11  A    between atoms: N_19  and  C_20
REMARK   12  A    between atoms: N_19  and  C_22
REMARK   13  A    between atoms: C_20  and  C_21
REMARK   14  A    between atoms: C_22  and  C_23
REMARK                            x       y       z     vdW  Elec       q    Type
REMARK                         _______ _______ _______ _____ _____    ______ ____
ROOT
ATOM      1  C   UNL     1       6.887  -4.258  -0.087  0.00  0.00    +0.000 A 
ATOM      2  C   UNL     1       6.512  -5.253  -0.964  0.00  0.00    +0.000 A 
ATOM      3  C   UNL     1       7.240  -6.436  -0.990  0.00  0.00    +0.000 A 
ATOM      4  C   UNL     1       8.353  -6.677  -0.188  0.00  0.00    +0.000 A 
ATOM      5  C   UNL     1       8.722  -5.663   0.694  0.00  0.00    +0.000 A 
ATOM      6  C   UNL     1       8.005  -4.457   0.727  0.00  0.00    +0.000 A 
ATOM      7  C   UNL     1       9.079  -7.938  -0.365  0.00  0.00    +0.000 A 
ATOM      8  C   UNL     1      10.275  -8.277   0.514  0.00  0.00    +0.000 C 
ATOM      9  C   UNL     1       8.635  -8.782  -1.332  0.00  0.00    +0.000 A 
ATOM     10  C   UNL     1       7.388  -8.550  -2.104  0.00  0.00    +0.000 A 
ATOM     11  O   UNL     1       6.887  -9.372  -2.871  0.00  0.00    +0.000 OA
ATOM     12  O   UNL     1       6.752  -7.359  -1.912  0.00  0.00    +0.000 OA
ENDROOT
BRANCH   1  13
ATOM     13  O   UNL     1       6.283  -3.037  -0.028  0.00  0.00    +0.000 OA
BRANCH  13  14
ATOM     14  C   UNL     1       4.848  -3.029  -0.106  0.00  0.00    +0.000 C 
BRANCH  14  15
ATOM     15  C   UNL     1       4.379  -1.570  -0.085  0.00  0.00    +0.000 C 
ATOM     16  O   UNL     1       5.122  -0.600  -0.073  0.00  0.00    +0.000 OA
BRANCH  15  17
ATOM     17  O   UNL     1       3.007  -1.478  -0.091  0.00  0.00    +0.000 OA
BRANCH  17  19
ATOM     18  C   UNL     1       1.002  -0.092  -0.071  0.00  0.00    +0.000 C 
ATOM     19  C   UNL     1       2.523  -0.118  -0.072  0.00  0.00    +0.000 C 
ENDBRANCH  17  19
ENDBRANCH  15  17
ENDBRANCH  14  15
ENDBRANCH  13  14
ENDBRANCH   1  13
BRANCH   9  20
ATOM     20  C   UNL     1       9.309 -10.104  -1.497  0.00  0.00    +0.000 C 
BRANCH  20  21
ATOM     21  C   UNL     1       8.723 -11.171  -2.411  0.00  0.00    +0.000 C 
BRANCH  21  22
ATOM     22  N   UNL     1       9.462 -12.450  -2.428  0.00  0.00    +0.000 NA
BRANCH  22  23
ATOM     23  C   UNL     1       9.437 -13.147  -1.121  0.00  0.00    +0.000 C 
ATOM     24  C   UNL     1      10.214 -12.508   0.027  0.00  0.00    +0.000 C 
ENDBRANCH  22  23
BRANCH  22  25
ATOM     25  C   UNL     1       8.803 -13.283  -3.470  0.00  0.00    +0.000 C 
ATOM     26  C   UNL     1       9.514 -14.606  -3.699  0.00  0.00    +0.000 C 
ENDBRANCH  22  25
ENDBRANCH  21  22
ENDBRANCH  20  21
ENDBRANCH   9  20
TORSDOF 10
