REMARK  Name = Carboprost tromethamine
REMARK  25 active torsions:
REMARK  status: ('A' for Active; 'I' for Inactive)
REMARK    1  A    between atoms: N_1  and  C_2
REMARK    2  A    between atoms: C_2  and  C_3
REMARK    3  A    between atoms: C_2  and  C_5
REMARK    4  A    between atoms: C_2  and  C_7
REMARK    5  A    between atoms: C_3  and  O_4
REMARK    6  A    between atoms: C_5  and  O_6
REMARK    7  A    between atoms: C_7  and  O_8
REMARK    8  A    between atoms: C_9  and  C_10
REMARK    9  A    between atoms: C_10  and  C_11
REMARK   10  A    between atoms: C_11  and  C_12
REMARK   11  A    between atoms: C_12  and  C_13
REMARK   12  A    between atoms: C_13  and  C_14
REMARK   13  A    between atoms: C_14  and  C_15
REMARK   14  A    between atoms: C_14  and  O_16
REMARK   15  A    between atoms: C_14  and  C_17
REMARK   16  A    between atoms: C_18  and  C_19
REMARK   17  A    between atoms: C_20  and  O_21
REMARK   18  A    between atoms: C_23  and  O_24
REMARK   19  A    between atoms: C_25  and  C_26
REMARK   20  A    between atoms: C_26  and  C_27
REMARK   21  A    between atoms: C_28  and  C_29
REMARK   22  A    between atoms: C_29  and  C_30
REMARK   23  A    between atoms: C_30  and  C_31
REMARK   24  A    between atoms: C_31  and  C_32
REMARK   25  A    between atoms: C_32  and  O_33
REMARK                            x       y       z     vdW  Elec       q    Type
REMARK                         _______ _______ _______ _____ _____    ______ ____
ROOT
ATOM      1  C   UNL     1       2.417   0.063   0.089  0.00  0.00    +0.000 C 
ENDROOT
BRANCH   1   2
ATOM      2  N   UNL     1       0.933   0.088   0.087  0.00  0.00    +0.000 NA
ATOM      3  H   UNL     1       0.603  -0.882   0.116  0.00  0.00    +0.000 HD
ATOM      4  H   UNL     1       0.593   0.435  -0.811  0.00  0.00    +0.000 HD
ENDBRANCH   1   2
BRANCH   1   5
ATOM      5  C   UNL     1       2.917  -0.595   1.409  0.00  0.00    +0.000 C 
BRANCH   5   6
ATOM      6  O   UNL     1       2.529   0.094   2.593  0.00  0.00    +0.000 OA
ATOM      7  H   UNL     1       2.718   1.040   2.498  0.00  0.00    +0.000 HD
ENDBRANCH   5   6
ENDBRANCH   1   5
BRANCH   1   8
ATOM      8  C   UNL     1       2.925  -0.766  -1.123  0.00  0.00    +0.000 C 
BRANCH   8   9
ATOM      9  O   UNL     1       2.419  -2.101  -1.101  0.00  0.00    +0.000 OA
ATOM     10  H   UNL     1       2.798  -2.560  -0.333  0.00  0.00    +0.000 HD
ENDBRANCH   8   9
ENDBRANCH   1   8
BRANCH   1  11
ATOM     11  C   UNL     1       2.945   1.511  -0.034  0.00  0.00    +0.000 C 
BRANCH  11  12
ATOM     12  O   UNL     1       4.369   1.570  -0.057  0.00  0.00    +0.000 OA
ATOM     13  H   UNL     1       4.712   1.221   0.785  0.00  0.00    +0.000 HD
ENDBRANCH  11  12
ENDBRANCH   1  11
TORSDOF 7
REMARK  Name = Carboprost tromethamine
REMARK  25 active torsions:
REMARK  status: ('A' for Active; 'I' for Inactive)
REMARK    1  A    between atoms: N_1  and  C_2
REMARK    2  A    between atoms: C_2  and  C_3
REMARK    3  A    between atoms: C_2  and  C_5
REMARK    4  A    between atoms: C_2  and  C_7
REMARK    5  A    between atoms: C_3  and  O_4
REMARK    6  A    between atoms: C_5  and  O_6
REMARK    7  A    between atoms: C_7  and  O_8
REMARK    8  A    between atoms: C_9  and  C_10
REMARK    9  A    between atoms: C_10  and  C_11
REMARK   10  A    between atoms: C_11  and  C_12
REMARK   11  A    between atoms: C_12  and  C_13
REMARK   12  A    between atoms: C_13  and  C_14
REMARK   13  A    between atoms: C_14  and  C_15
REMARK   14  A    between atoms: C_14  and  O_16
REMARK   15  A    between atoms: C_14  and  C_17
REMARK   16  A    between atoms: C_18  and  C_19
REMARK   17  A    between atoms: C_20  and  O_21
REMARK   18  A    between atoms: C_23  and  O_24
REMARK   19  A    between atoms: C_25  and  C_26
REMARK   20  A    between atoms: C_26  and  C_27
REMARK   21  A    between atoms: C_28  and  C_29
REMARK   22  A    between atoms: C_29  and  C_30
REMARK   23  A    between atoms: C_30  and  C_31
REMARK   24  A    between atoms: C_31  and  C_32
REMARK   25  A    between atoms: C_32  and  O_33
REMARK                            x       y       z     vdW  Elec       q    Type
REMARK                         _______ _______ _______ _____ _____    ______ ____
ROOT
ATOM      1  C   UNL     2       8.956   5.905   0.511  0.00  0.00    +0.000 C 
ATOM      2  C   UNL     2       9.143   6.384   1.973  0.00  0.00    +0.000 C 
ATOM      3  C   UNL     2       9.109   7.916   1.957  0.00  0.00    +0.000 C 
ATOM      4  C   UNL     2       9.017   8.310   0.486  0.00  0.00    +0.000 C 
ATOM      5  C   UNL     2       8.347   7.116  -0.210  0.00  0.00    +0.000 C 
ENDROOT
BRANCH   2   6
ATOM      6  O   UNL     2       8.088   5.890   2.809  0.00  0.00    +0.000 OA
ATOM      7  H   UNL     2       7.228   6.158   2.447  0.00  0.00    +0.000 HD
ENDBRANCH   2   6
BRANCH   4   8
ATOM      8  O   UNL     2       8.331   9.534   0.294  0.00  0.00    +0.000 OA
ATOM      9  H   UNL     2       7.445   9.473   0.687  0.00  0.00    +0.000 HD
ENDBRANCH   4   8
BRANCH   1  11
ATOM     10  C   UNL     2      10.615   4.322  -0.526  0.00  0.00    +0.000 C 
ATOM     11  C   UNL     2      10.205   5.567  -0.244  0.00  0.00    +0.000 C 
BRANCH  10  12
ATOM     12  C   UNL     2      11.961   4.033  -1.151  0.00  0.00    +0.000 C 
ATOM     13  C   UNL     2      12.147   2.523  -1.316  0.00  0.00    +0.000 C 
BRANCH  12  14
ATOM     14  O   UNL     2      11.967   4.608  -2.461  0.00  0.00    +0.000 OA
ATOM     15  H   UNL     2      11.176   4.285  -2.924  0.00  0.00    +0.000 HD
ENDBRANCH  12  14
BRANCH  12  16
ATOM     16  C   UNL     2      13.161   4.628  -0.369  0.00  0.00    +0.000 C 
BRANCH  16  17
ATOM     17  C   UNL     2      12.815   5.123   1.036  0.00  0.00    +0.000 C 
BRANCH  17  18
ATOM     18  C   UNL     2      14.029   5.521   1.832  0.00  0.00    +0.000 C 
BRANCH  18  20
ATOM     19  C   UNL     2      14.780   6.462   3.997  0.00  0.00    +0.000 C 
ATOM     20  C   UNL     2      13.573   6.062   3.183  0.00  0.00    +0.000 C 
ENDBRANCH  18  20
ENDBRANCH  17  18
ENDBRANCH  16  17
ENDBRANCH  12  16
ENDBRANCH  10  12
ENDBRANCH   1  11
BRANCH   5  21
ATOM     21  C   UNL     2       6.835   7.131  -0.104  0.00  0.00    +0.000 C 
BRANCH  21  22
ATOM     22  C   UNL     2       6.211   5.933  -0.752  0.00  0.00    +0.000 C 
ATOM     23  C   UNL     2       4.891   5.733  -0.705  0.00  0.00    +0.000 C 
BRANCH  23  24
ATOM     24  C   UNL     2       3.983   6.705  -0.015  0.00  0.00    +0.000 C 
BRANCH  24  25
ATOM     25  C   UNL     2       2.545   6.261  -0.148  0.00  0.00    +0.000 C 
BRANCH  25  26
ATOM     26  C   UNL     2       1.604   7.231   0.544  0.00  0.00    +0.000 C 
BRANCH  26  27
ATOM     27  C   UNL     2       0.145   6.860   0.459  0.00  0.00    +0.000 C 
ATOM     28  O   UNL     2      -0.728   7.555   0.977  0.00  0.00    +0.000 OA
BRANCH  27  29
ATOM     29  O   UNL     2      -0.171   5.734  -0.206  0.00  0.00    +0.000 OA
ATOM     30  H   UNL     2       0.555   5.219  -0.600  0.00  0.00    +0.000 HD
ENDBRANCH  27  29
ENDBRANCH  26  27
ENDBRANCH  25  26
ENDBRANCH  24  25
ENDBRANCH  23  24
ENDBRANCH  21  22
ENDBRANCH   5  21
TORSDOF 16
