REMARK  Name = Carbamoylcholine
REMARK  7 active torsions:
REMARK  status: ('A' for Active; 'I' for Inactive)
REMARK    1  A    between atoms: C_1  and  N_2
REMARK    2  A    between atoms: N_2  and  C_3
REMARK    3  A    between atoms: N_2  and  C_4
REMARK    4  A    between atoms: N_2  and  C_5
REMARK    5  A    between atoms: C_5  and  C_6
REMARK    6  A    between atoms: C_6  and  O_7
REMARK    7  A    between atoms: O_7  and  C_8
REMARK                            x       y       z     vdW  Elec       q    Type
REMARK                         _______ _______ _______ _____ _____    ______ ____
ROOT
ATOM      1  C   UNL     1       4.613  -0.947  -1.048  0.00  0.00    +0.000 C 
ENDROOT
BRANCH   1   2
ATOM      2  C   UNL     1       3.079  -0.929  -1.026  0.00  0.00    +0.000 C 
BRANCH   2   4
ATOM      3  C   UNL     1       1.007  -0.035   0.072  0.00  0.00    +0.000 C 
ATOM      4  N   UNL     1       2.536  -0.012   0.099  0.00  0.00    +0.000 N 
ATOM      5  C   UNL     1       2.992   1.427  -0.116  0.00  0.00    +0.000 C 
ATOM      6  C   UNL     1       2.992  -0.514   1.465  0.00  0.00    +0.000 C 
ENDBRANCH   2   4
ENDBRANCH   1   2
BRANCH   1   7
ATOM      7  O   UNL     1       5.098  -1.792  -2.085  0.00  0.00    +0.000 OA
BRANCH   7   8
ATOM      8  C   UNL     1       6.441  -1.936  -2.262  0.00  0.00    +0.000 C 
ATOM      9  N   UNL     1       7.268  -1.252  -1.423  0.00  0.00    +0.000 N 
ATOM     10  O   UNL     1       6.894  -2.653  -3.143  0.00  0.00    +0.000 OA
ATOM     11  H   UNL     1       7.011  -0.639  -0.670  0.00  0.00    +0.000 HD
ATOM     12  H   UNL     1       8.261  -1.383  -1.583  0.00  0.00    +0.000 HD
ENDBRANCH   7   8
ENDBRANCH   1   7
TORSDOF 4
