REMARK  Name = Carbocisteine
REMARK  8 active torsions:
REMARK  status: ('A' for Active; 'I' for Inactive)
REMARK    1  A    between atoms: N_1  and  C_2
REMARK    2  A    between atoms: C_2  and  C_3
REMARK    3  A    between atoms: C_2  and  C_9
REMARK    4  A    between atoms: C_3  and  S_4
REMARK    5  A    between atoms: S_4  and  C_5
REMARK    6  A    between atoms: C_5  and  C_6
REMARK    7  A    between atoms: C_6  and  O_7
REMARK    8  A    between atoms: C_9  and  O_10
REMARK                            x       y       z     vdW  Elec       q    Type
REMARK                         _______ _______ _______ _____ _____    ______ ____
ROOT
ATOM      1  C   UNK     1       2.493  -0.004  -0.025  0.00  0.00    +0.000 C 
ENDROOT
BRANCH   1   2
ATOM      2  N   UNK     1       0.995  -0.077   0.001  0.00  0.00    +0.000 NA
ATOM      3  H   UNK     1       0.684   0.643  -0.668  0.00  0.00    +0.000 HD
ATOM      4  H   UNK     1       0.660   0.296   0.893  0.00  0.00    +0.000 HD
ENDBRANCH   1   2
BRANCH   1   5
ATOM      5  C   UNK     1       3.087  -1.100   0.864  0.00  0.00    +0.000 C 
ATOM      6  O   UNK     1       4.291  -1.264   1.031  0.00  0.00    +0.000 OA
BRANCH   5   7
ATOM      7  O   UNK     1       2.155  -1.880   1.463  0.00  0.00    +0.000 OA
ATOM      8  H   UNK     1       1.267  -1.645   1.108  0.00  0.00    +0.000 HD
ENDBRANCH   5   7
ENDBRANCH   1   5
BRANCH   1   9
ATOM      9  C   UNK     1       3.008   1.390   0.407  0.00  0.00    +0.000 C 
BRANCH   9  10
ATOM     10  S   UNK     1       2.323   2.646  -0.763  0.00  0.00    +0.000 S 
BRANCH  10  11
ATOM     11  C   UNK     1       2.987   4.219  -0.081  0.00  0.00    +0.000 C 
BRANCH  11  12
ATOM     12  C   UNK     1       2.532   5.415  -0.916  0.00  0.00    +0.000 C 
ATOM     13  O   UNK     1       2.841   6.570  -0.648  0.00  0.00    +0.000 OA
BRANCH  12  14
ATOM     14  O   UNK     1       1.752   5.127  -1.984  0.00  0.00    +0.000 OA
ATOM     15  H   UNK     1       1.603   4.160  -2.067  0.00  0.00    +0.000 HD
ENDBRANCH  12  14
ENDBRANCH  11  12
ENDBRANCH  10  11
ENDBRANCH   9  10
ENDBRANCH   1   9
TORSDOF 8
