REMARK  Name = Carbimazole
REMARK  4 active torsions:
REMARK  status: ('A' for Active; 'I' for Inactive)
REMARK    1  A    between atoms: C_1  and  C_2
REMARK    2  A    between atoms: C_2  and  O_3
REMARK    3  A    between atoms: O_3  and  C_4
REMARK    4  A    between atoms: N_9  and  C_10
REMARK                            x       y       z     vdW  Elec       q    Type
REMARK                         _______ _______ _______ _____ _____    ______ ____
ROOT
ATOM      1  C   UNL     1       4.314   1.567   0.256  0.00  0.00    +0.000 C 
ATOM      2  O   UNL     1       5.054   0.590   0.129  0.00  0.00    +0.000 OA
ATOM      3  N   UNL     1       4.782   2.870   0.370  0.00  0.00    +0.000 N 
ATOM      4  C   UNL     1       4.298   3.866   1.210  0.00  0.00    +0.000 A 
ATOM      5  C   UNL     1       5.027   4.983   1.054  0.00  0.00    +0.000 A 
ATOM      6  N   UNL     1       5.978   4.768   0.082  0.00  0.00    +0.000 N 
ATOM      7  C   UNL     1       6.932   5.745  -0.394  0.00  0.00    +0.000 C 
ATOM      8  C   UNL     1       5.854   3.434  -0.399  0.00  0.00    +0.000 A 
ATOM      9  S   UNL     1       6.735   2.744  -1.632  0.00  0.00    +0.000 S 
ENDROOT
BRANCH   1  10
ATOM     10  O   UNL     1       2.950   1.443   0.337  0.00  0.00    +0.000 OA
BRANCH  10  12
ATOM     11  C   UNL     1       0.978   0.052   0.090  0.00  0.00    +0.000 C 
ATOM     12  C   UNL     1       2.496   0.090   0.116  0.00  0.00    +0.000 C 
ENDBRANCH  10  12
ENDBRANCH   1  10
TORSDOF 2
