REMARK  Name = Carindacillin
REMARK  10 active torsions:
REMARK  status: ('A' for Active; 'I' for Inactive)
REMARK    1  A    between atoms: C_4  and  C_5
REMARK    2  A    between atoms: C_4  and  C_6
REMARK    3  A    between atoms: CA_7  and  C_34
REMARK    4  A    between atoms: CA_11  and  N_12
REMARK    5  A    between atoms: C_13  and  C_15
REMARK    6  A    between atoms: C_15  and  C_16
REMARK    7  A    between atoms: C_15  and  C_28
REMARK    8  A    between atoms: C_16  and  O_18
REMARK    9  A    between atoms: O_18  and  C_19
REMARK   10  A    between atoms: C_34  and  O_35
REMARK                            x       y       z     vdW  Elec       q    Type
REMARK                         _______ _______ _______ _____ _____    ______ ____
ROOT
ATOM      1  C   UNL     1       4.597   3.417  -2.930  0.00  0.00    +0.000 C 
ENDROOT
BRANCH   1   2
ATOM      2  C   UNL     1       5.269   4.810  -2.845  0.00  0.00    +0.000 A 
ATOM      3  C   UNL     1       6.586   4.976  -2.393  0.00  0.00    +0.000 A 
ATOM      4  C   UNL     1       7.085   6.267  -2.160  0.00  0.00    +0.000 A 
ATOM      5  C   UNL     1       6.330   7.396  -2.483  0.00  0.00    +0.000 A 
ATOM      6  C   UNL     1       5.039   7.247  -2.956  0.00  0.00    +0.000 A 
ATOM      7  C   UNL     1       4.507   5.973  -3.081  0.00  0.00    +0.000 A 
ENDBRANCH   1   2
BRANCH   1   9
ATOM      8  N   UNL     1       3.473   1.809  -1.393  0.00  0.00    +0.000 N 
ATOM      9  C   UNL     1       4.001   3.072  -1.558  0.00  0.00    +0.000 C 
ATOM     10  O   UNL     1       4.001   3.854  -0.606  0.00  0.00    +0.000 OA
ATOM     11  H   UNL     1       3.455   1.152  -2.167  0.00  0.00    +0.000 HD
BRANCH   8  21
ATOM     12  C   UNL     1       2.137   0.075  -0.011  0.00  0.00    +0.000 C 
ATOM     13  S   UNL     1       2.568  -1.181  -1.268  0.00  0.00    +0.000 S 
ATOM     14  C   UNL     1       2.918  -2.438   0.075  0.00  0.00    +0.000 C 
ATOM     15  C   UNL     1       3.859  -3.480  -0.536  0.00  0.00    +0.000 C 
ATOM     16  C   UNL     1       1.544  -3.028   0.441  0.00  0.00    +0.000 C 
ATOM     17  CA  UNL     1       3.604  -1.608   1.186  0.00  0.00    +0.000 C 
ATOM     18  N   UNL     1       2.980  -0.268   1.148  0.00  0.00    +0.000 N 
ATOM     19  C   UNL     1       3.748   0.865   1.026  0.00  0.00    +0.000 C 
ATOM     20  O   UNL     1       4.833   1.140   1.503  0.00  0.00    +0.000 OA
ATOM     21  CA  UNL     1       2.831   1.443  -0.088  0.00  0.00    +0.000 C 
BRANCH  17  22
ATOM     22  C   UNL     1       3.644  -2.160   2.632  0.00  0.00    +0.000 C 
ATOM     23  OXT UNL     1       4.093  -1.515   3.572  0.00  0.00    +0.000 OA
BRANCH  22  24
ATOM     24  O   UNL     1       3.199  -3.409   2.874  0.00  0.00    +0.000 OA
ATOM     25  H   UNL     1       3.036  -4.034   2.151  0.00  0.00    +0.000 HD
ENDBRANCH  22  24
ENDBRANCH  17  22
ENDBRANCH   8  21
ENDBRANCH   1   9
BRANCH   1  26
ATOM     26  C   UNL     1       3.570   3.377  -4.077  0.00  0.00    +0.000 C 
ATOM     27  O   UNL     1       3.374   4.313  -4.848  0.00  0.00    +0.000 OA
BRANCH  26  28
ATOM     28  O   UNL     1       2.901   2.158  -4.200  0.00  0.00    +0.000 OA
BRANCH  28  29
ATOM     29  C   UNL     1       1.948   2.107  -5.256  0.00  0.00    +0.000 A 
ATOM     30  C   UNL     1       2.208   2.629  -6.535  0.00  0.00    +0.000 A 
ATOM     31  C   UNL     1       1.222   2.558  -7.505  0.00  0.00    +0.000 A 
ATOM     32  C   UNL     1      -0.007   1.956  -7.234  0.00  0.00    +0.000 A 
ATOM     33  C   UNL     1      -0.896   2.020  -8.442  0.00  0.00    +0.000 C 
ATOM     34  C   UNL     1       0.133   2.284  -9.556  0.00  0.00    +0.000 C 
ATOM     35  C   UNL     1       1.266   3.091  -8.906  0.00  0.00    +0.000 C 
ATOM     36  C   UNL     1      -0.274   1.424  -5.979  0.00  0.00    +0.000 A 
ATOM     37  C   UNL     1       0.716   1.493  -4.984  0.00  0.00    +0.000 A 
ENDBRANCH  28  29
ENDBRANCH  26  28
ENDBRANCH   1  26
TORSDOF 8
