REMARK  Name = Carisoprodol
REMARK  13 active torsions:
REMARK  status: ('A' for Active; 'I' for Inactive)
REMARK    1  A    between atoms: C_1  and  C_2
REMARK    2  A    between atoms: C_2  and  C_3
REMARK    3  A    between atoms: C_3  and  C_4
REMARK    4  A    between atoms: C_4  and  C_5
REMARK    5  A    between atoms: C_4  and  C_6
REMARK    6  A    between atoms: C_4  and  C_11
REMARK    7  A    between atoms: C_6  and  O_7
REMARK    8  A    between atoms: O_7  and  C_8
REMARK    9  A    between atoms: C_11  and  O_12
REMARK   10  A    between atoms: O_12  and  C_13
REMARK   11  A    between atoms: N_15  and  C_16
REMARK   12  A    between atoms: C_16  and  C_17
REMARK   13  A    between atoms: C_16  and  C_18
REMARK                            x       y       z     vdW  Elec       q    Type
REMARK                         _______ _______ _______ _____ _____    ______ ____
ROOT
ATOM      1  C   UNL     1       4.551  -1.476  -0.006  0.00  0.00    +0.000 C 
ATOM      2  C   UNL     1       5.059  -0.797  -1.292  0.00  0.00    +0.000 C 
ENDROOT
BRANCH   1   3
ATOM      3  C   UNL     1       2.986  -1.474  -0.015  0.00  0.00    +0.000 C 
BRANCH   3   5
ATOM      4  C   UNL     1       0.846  -0.091  -0.075  0.00  0.00    +0.000 C 
ATOM      5  C   UNL     1       2.356  -0.073  -0.065  0.00  0.00    +0.000 C 
ENDBRANCH   3   5
ENDBRANCH   1   3
BRANCH   1   6
ATOM      6  C   UNL     1       5.100  -0.742   1.246  0.00  0.00    +0.000 C 
BRANCH   6   7
ATOM      7  O   UNL     1       4.778   0.661   1.208  0.00  0.00    +0.000 OA
BRANCH   7   8
ATOM      8  C   UNL     1       4.948   1.497   2.256  0.00  0.00    +0.000 C 
ATOM      9  N   UNL     1       5.662   1.020   3.302  0.00  0.00    +0.000 N 
ATOM     10  O   UNL     1       4.510   2.643   2.256  0.00  0.00    +0.000 OA
ATOM     11  H   UNL     1       6.067   0.101   3.335  0.00  0.00    +0.000 HD
ATOM     12  H   UNL     1       5.878   1.678   4.038  0.00  0.00    +0.000 HD
ENDBRANCH   7   8
ENDBRANCH   6   7
ENDBRANCH   1   6
BRANCH   1  13
ATOM     13  C   UNL     1       5.084  -2.939   0.023  0.00  0.00    +0.000 C 
BRANCH  13  14
ATOM     14  O   UNL     1       6.538  -2.961   0.030  0.00  0.00    +0.000 OA
BRANCH  14  15
ATOM     15  C   UNL     1       7.083  -4.210   0.082  0.00  0.00    +0.000 C 
ATOM     16  O   UNL     1       6.419  -5.234   0.156  0.00  0.00    +0.000 OA
ATOM     17  N   UNL     1       8.458  -4.171   0.037  0.00  0.00    +0.000 N 
ATOM     18  H   UNL     1       8.902  -3.263  -0.000  0.00  0.00    +0.000 HD
BRANCH  17  19
ATOM     19  C   UNL     1       9.266  -5.392   0.045  0.00  0.00    +0.000 C 
ATOM     20  C   UNL     1       8.962  -6.264  -1.176  0.00  0.00    +0.000 C 
ATOM     21  C   UNL     1      10.772  -5.108   0.074  0.00  0.00    +0.000 C 
ENDBRANCH  17  19
ENDBRANCH  14  15
ENDBRANCH  13  14
ENDBRANCH   1  13
TORSDOF 9
