REMARK  Name = Cariprazine
REMARK  7 active torsions:
REMARK  status: ('A' for Active; 'I' for Inactive)
REMARK    1  A    between atoms: C_1  and  N_2
REMARK    2  A    between atoms: N_2  and  C_3
REMARK    3  A    between atoms: N_6  and  C_7
REMARK    4  A    between atoms: C_10  and  C_11
REMARK    5  A    between atoms: C_11  and  C_12
REMARK    6  A    between atoms: C_12  and  N_13
REMARK    7  A    between atoms: N_16  and  C_19
REMARK                            x       y       z     vdW  Elec       q    Type
REMARK                         _______ _______ _______ _____ _____    ______ ____
ROOT
ATOM      1  C   UNL     1       3.340   1.549   6.652  0.00  0.00    +0.000 C 
ENDROOT
BRANCH   1   2
ATOM      2  N   UNL     1       1.897   1.513   6.916  0.00  0.00    +0.000 NA
ATOM      3  C   UNL     1       1.397   0.146   7.222  0.00  0.00    +0.000 C 
ATOM      4  C   UNL     1       2.052  -0.476   8.479  0.00  0.00    +0.000 C 
ATOM      5  N   UNL     1       1.839   0.412   9.628  0.00  0.00    +0.000 N 
ATOM      6  C   UNL     1       2.181   1.827   9.429  0.00  0.00    +0.000 C 
ATOM      7  C   UNL     1       1.606   2.370   8.092  0.00  0.00    +0.000 C 
BRANCH   5   8
ATOM      8  C   UNL     1       1.130  -0.035  10.728  0.00  0.00    +0.000 A 
ATOM      9  C   UNL     1      -0.094   0.508  11.190  0.00  0.00    +0.000 A 
ATOM     10 CL   UNL     1      -0.911   1.763  10.308  0.00  0.00    +0.000 Cl
ATOM     11  C   UNL     1      -0.712  -0.010  12.342  0.00  0.00    +0.000 A 
ATOM     12 CL   UNL     1      -2.204   0.617  12.964  0.00  0.00    +0.000 Cl
ATOM     13  C   UNL     1      -0.137  -1.073  13.038  0.00  0.00    +0.000 A 
ATOM     14  C   UNL     1       1.057  -1.626  12.594  0.00  0.00    +0.000 A 
ATOM     15  C   UNL     1       1.677  -1.111  11.455  0.00  0.00    +0.000 A 
ENDBRANCH   5   8
ENDBRANCH   1   2
BRANCH   1  16
ATOM     16  C   UNL     1       3.765   0.463   5.682  0.00  0.00    +0.000 C 
BRANCH  16  20
ATOM     17  C   UNL     1       5.348   0.196   2.557  0.00  0.00    +0.000 C 
ATOM     18  C   UNL     1       5.071  -1.009   3.440  0.00  0.00    +0.000 C 
ATOM     19  C   UNL     1       5.697  -0.842   4.804  0.00  0.00    +0.000 C 
ATOM     20  C   UNL     1       5.275   0.492   5.436  0.00  0.00    +0.000 C 
ATOM     21  C   UNL     1       5.646   1.689   4.553  0.00  0.00    +0.000 C 
ATOM     22  C   UNL     1       5.024   1.557   3.172  0.00  0.00    +0.000 C 
BRANCH  17  28
ATOM     23  C   UNL     1       6.908   0.962  -1.573  0.00  0.00    +0.000 C 
ATOM     24  N   UNL     1       6.324   0.741  -0.267  0.00  0.00    +0.000 N 
ATOM     25  C   UNL     1       4.878   0.758  -0.237  0.00  0.00    +0.000 C 
ATOM     26  C   UNL     1       7.173   0.478   0.782  0.00  0.00    +0.000 C 
ATOM     27  O   UNL     1       8.406   0.485   0.652  0.00  0.00    +0.000 OA
ATOM     28  N   UNL     1       6.696   0.182   2.015  0.00  0.00    +0.000 N 
ATOM     29  H   UNL     1       7.455   0.093   2.683  0.00  0.00    +0.000 HD
ENDBRANCH  17  28
ENDBRANCH  16  20
ENDBRANCH   1  16
TORSDOF 5
