REMARK  Name = Carmustine
REMARK  5 active torsions:
REMARK  status: ('A' for Active; 'I' for Inactive)
REMARK    1  A    between atoms: C_2  and  C_3
REMARK    2  A    between atoms: C_3  and  N_4
REMARK    3  A    between atoms: N_7  and  C_8
REMARK    4  A    between atoms: N_7  and  N_11
REMARK    5  A    between atoms: C_8  and  C_9
REMARK                            x       y       z     vdW  Elec       q    Type
REMARK                         _______ _______ _______ _____ _____    ______ ____
ROOT
ATOM      1  N   UNL     1       4.650  -0.424  -1.474  0.00  0.00    +0.000 N 
ATOM      2  C   UNL     1       5.420  -0.764  -2.560  0.00  0.00    +0.000 C 
ATOM      3  O   UNL     1       4.841  -1.092  -3.606  0.00  0.00    +0.000 OA
ATOM      4  N   UNL     1       6.822  -0.723  -2.430  0.00  0.00    +0.000 N 
ATOM      5  H   UNL     1       5.023  -0.151  -0.604  0.00  0.00    +0.000 HD
ENDROOT
BRANCH   4   6
ATOM      6  N   UNL     1       7.508  -1.097  -3.621  0.00  0.00    +0.000 NA
ATOM      7  O   UNL     1       8.741  -1.070  -3.535  0.00  0.00    +0.000 OA
ENDBRANCH   4   6
BRANCH   1   8
ATOM      8  C   UNL     1       3.197  -0.404  -1.411  0.00  0.00    +0.000 C 
BRANCH   8  10
ATOM      9 CL   UNL     1       0.966   0.070   0.102  0.00  0.00    +0.000 Cl
ATOM     10  C   UNL     1       2.731   0.035  -0.011  0.00  0.00    +0.000 C 
ENDBRANCH   8  10
ENDBRANCH   1   8
BRANCH   4  11
ATOM     11  C   UNL     1       7.700  -0.360  -1.271  0.00  0.00    +0.000 C 
BRANCH  11  12
ATOM     12  C   UNL     1       6.984   0.037  -0.002  0.00  0.00    +0.000 C 
ATOM     13 CL   UNL     1       7.992   0.469   1.375  0.00  0.00    +0.000 Cl
ENDBRANCH  11  12
ENDBRANCH   4  11
TORSDOF 5
