REMARK  Name = Carprofen
REMARK  4 active torsions:
REMARK  status: ('A' for Active; 'I' for Inactive)
REMARK    1  A    between atoms: C_1  and  C_2
REMARK    2  A    between atoms: C_2  and  C_3
REMARK    3  A    between atoms: C_2  and  C_6
REMARK    4  A    between atoms: C_3  and  O_4
REMARK                            x       y       z     vdW  Elec       q    Type
REMARK                         _______ _______ _______ _____ _____    ______ ____
ROOT
ATOM      1  C   UNL     1       3.063  -1.236  -0.674  0.00  0.00    +0.000 A 
ATOM      2  C   UNL     1       3.775  -1.127  -1.881  0.00  0.00    +0.000 A 
ATOM      3  C   UNL     1       4.047  -2.317  -2.565  0.00  0.00    +0.000 A 
ATOM      4  C   UNL     1       3.644  -3.566  -2.095  0.00  0.00    +0.000 A 
ATOM      5  C   UNL     1       2.946  -3.657  -0.883  0.00  0.00    +0.000 A 
ATOM      6  C   UNL     1       2.667  -2.492  -0.188  0.00  0.00    +0.000 A 
ATOM      7  C   UNL     1       4.071  -4.542  -3.035  0.00  0.00    +0.000 A 
ATOM      8  C   UNL     1       4.741  -3.875  -4.057  0.00  0.00    +0.000 A 
ATOM      9  N   UNL     1       4.701  -2.532  -3.757  0.00  0.00    +0.000 N 
ATOM     10  C   UNL     1       5.314  -4.546  -5.140  0.00  0.00    +0.000 A 
ATOM     11  C   UNL     1       5.175  -5.938  -5.179  0.00  0.00    +0.000 A 
ATOM     12  C   UNL     1       4.495  -6.622  -4.173  0.00  0.00    +0.000 A 
ATOM     13 CL   UNL     1       4.325  -8.332  -4.263  0.00  0.00    +0.000 Cl
ATOM     14  C   UNL     1       3.945  -5.943  -3.088  0.00  0.00    +0.000 A 
ATOM     15  H   UNL     1       5.100  -1.804  -4.332  0.00  0.00    +0.000 HD
ENDROOT
BRANCH   1  17
ATOM     16  C   UNL     1       1.106   0.066   0.064  0.00  0.00    +0.000 C 
ATOM     17  C   UNL     1       2.640   0.002   0.096  0.00  0.00    +0.000 C 
BRANCH  17  18
ATOM     18  C   UNL     1       3.138   0.080   1.539  0.00  0.00    +0.000 C 
ATOM     19  O   UNL     1       2.811   0.994   2.294  0.00  0.00    +0.000 OA
BRANCH  18  20
ATOM     20  O   UNL     1       3.966  -0.894   1.975  0.00  0.00    +0.000 OA
ATOM     21  H   UNL     1       4.221  -1.576   1.323  0.00  0.00    +0.000 HD
ENDBRANCH  18  20
ENDBRANCH  17  18
ENDBRANCH   1  17
TORSDOF 3
