REMARK  Name = Carteolol
REMARK  10 active torsions:
REMARK  status: ('A' for Active; 'I' for Inactive)
REMARK    1  A    between atoms: C_1  and  C_2
REMARK    2  A    between atoms: C_2  and  C_3
REMARK    3  A    between atoms: C_2  and  C_4
REMARK    4  A    between atoms: C_2  and  N_5
REMARK    5  A    between atoms: N_5  and  C_6
REMARK    6  A    between atoms: C_6  and  C_7
REMARK    7  A    between atoms: C_7  and  O_8
REMARK    8  A    between atoms: C_7  and  C_9
REMARK    9  A    between atoms: C_9  and  O_10
REMARK   10  A    between atoms: O_10  and  C_11
REMARK                            x       y       z     vdW  Elec       q    Type
REMARK                         _______ _______ _______ _____ _____    ______ ____
ROOT
ATOM      1  O   UNL     1       7.054   4.061  -0.958  0.00  0.00    +0.000 OA
ENDROOT
BRANCH   1   2
ATOM      2  C   UNL     1       8.415   4.194  -1.007  0.00  0.00    +0.000 A 
ATOM      3  C   UNL     1       8.929   5.340  -0.387  0.00  0.00    +0.000 A 
ATOM      4  C   UNL     1      10.297   5.623  -0.428  0.00  0.00    +0.000 A 
ATOM      5  C   UNL     1      11.163   4.760  -1.096  0.00  0.00    +0.000 A 
ATOM      6  C   UNL     1      10.650   3.639  -1.746  0.00  0.00    +0.000 A 
ATOM      7  C   UNL     1       9.275   3.354  -1.729  0.00  0.00    +0.000 A 
ATOM      8  C   UNL     1       8.817   2.125  -2.457  0.00  0.00    +0.000 C 
ATOM      9  C   UNL     1       9.661   1.816  -3.664  0.00  0.00    +0.000 C 
ATOM     10  C   UNL     1      11.117   1.811  -3.303  0.00  0.00    +0.000 C 
ATOM     11  O   UNL     1      11.923   1.048  -3.839  0.00  0.00    +0.000 OA
ATOM     12  N   UNL     1      11.524   2.782  -2.428  0.00  0.00    +0.000 N 
ATOM     13  H   UNL     1      12.523   2.868  -2.299  0.00  0.00    +0.000 HD
ENDBRANCH   1   2
BRANCH   1  14
ATOM     14  C   UNL     1       6.560   2.779  -0.570  0.00  0.00    +0.000 C 
BRANCH  14  15
ATOM     15  C   UNL     1       5.030   2.795  -0.612  0.00  0.00    +0.000 C 
BRANCH  15  16
ATOM     16  O   UNL     1       4.506   3.665   0.396  0.00  0.00    +0.000 OA
ATOM     17  H   UNL     1       4.893   3.390   1.243  0.00  0.00    +0.000 HD
ENDBRANCH  15  16
BRANCH  15  18
ATOM     18  C   UNL     1       4.553   1.364  -0.359  0.00  0.00    +0.000 C 
BRANCH  18  19
ATOM     19  N   UNL     1       3.095   1.263  -0.347  0.00  0.00    +0.000 NA
ATOM     20  H   UNL     1       2.726   1.954   0.311  0.00  0.00    +0.000 HD
BRANCH  19  22
ATOM     21  C   UNL     1       1.062  -0.044  -0.049  0.00  0.00    +0.000 C 
ATOM     22  C   UNL     1       2.599  -0.087  -0.036  0.00  0.00    +0.000 C 
ATOM     23  C   UNL     1       3.064  -0.543   1.357  0.00  0.00    +0.000 C 
ATOM     24  C   UNL     1       3.065  -1.084  -1.111  0.00  0.00    +0.000 C 
ENDBRANCH  19  22
ENDBRANCH  18  19
ENDBRANCH  15  18
ENDBRANCH  14  15
ENDBRANCH   1  14
TORSDOF 7
