REMARK  Name = Carvedilol
REMARK  12 active torsions:
REMARK  status: ('A' for Active; 'I' for Inactive)
REMARK    1  A    between atoms: C_1  and  O_2
REMARK    2  A    between atoms: O_2  and  C_3
REMARK    3  A    between atoms: C_8  and  O_9
REMARK    4  A    between atoms: O_9  and  C_10
REMARK    5  A    between atoms: C_10  and  C_11
REMARK    6  A    between atoms: C_11  and  N_12
REMARK    7  A    between atoms: N_12  and  C_13
REMARK    8  A    between atoms: C_13  and  C_14
REMARK    9  A    between atoms: C_14  and  O_15
REMARK   10  A    between atoms: C_14  and  C_16
REMARK   11  A    between atoms: C_16  and  O_17
REMARK   12  A    between atoms: O_17  and  C_18
REMARK                            x       y       z     vdW  Elec       q    Type
REMARK                         _______ _______ _______ _____ _____    ______ ____
ROOT
ATOM      1  C   UNL     1      -2.945   3.368  -1.762  0.00  0.00    +0.000 C 
ENDROOT
BRANCH   1   2
ATOM      2  O   UNL     1      -2.122   4.440  -1.263  0.00  0.00    +0.000 OA
ATOM      3  H   UNL     1      -1.773   4.944  -2.016  0.00  0.00    +0.000 HD
ENDBRANCH   1   2
BRANCH   1   4
ATOM      4  C   UNL     1      -2.099   2.447  -2.660  0.00  0.00    +0.000 C 
BRANCH   4   5
ATOM      5  N   UNL     1      -0.966   1.825  -1.975  0.00  0.00    +0.000 NA
ATOM      6  H   UNL     1      -0.392   2.550  -1.535  0.00  0.00    +0.000 HD
BRANCH   5   7
ATOM      7  C   UNL     1      -0.188   1.015  -2.939  0.00  0.00    +0.000 C 
BRANCH   7   8
ATOM      8  C   UNL     1       0.945   0.317  -2.212  0.00  0.00    +0.000 C 
BRANCH   8   9
ATOM      9  O   UNL     1       1.871  -0.433  -2.955  0.00  0.00    +0.000 OA
BRANCH   9  15
ATOM     10  C   UNL     1       3.058  -0.949  -0.753  0.00  0.00    +0.000 A 
ATOM     11  C   UNL     1       4.154  -1.659  -0.222  0.00  0.00    +0.000 A 
ATOM     12  C   UNL     1       4.955  -2.486  -1.019  0.00  0.00    +0.000 A 
ATOM     13  C   UNL     1       4.645  -2.663  -2.360  0.00  0.00    +0.000 A 
ATOM     14  C   UNL     1       3.569  -1.970  -2.909  0.00  0.00    +0.000 A 
ATOM     15  C   UNL     1       2.784  -1.089  -2.140  0.00  0.00    +0.000 A 
BRANCH  10  17
ATOM     16  C   UNL     1       1.204  -0.062   0.568  0.00  0.00    +0.000 C 
ATOM     17  O   UNL     1       2.567  -0.011   0.133  0.00  0.00    +0.000 OA
ENDBRANCH  10  17
ENDBRANCH   9  15
ENDBRANCH   8   9
ENDBRANCH   7   8
ENDBRANCH   5   7
ENDBRANCH   4   5
ENDBRANCH   1   4
BRANCH   1  18
ATOM     18  C   UNL     1      -4.160   3.884  -2.582  0.00  0.00    +0.000 C 
BRANCH  18  19
ATOM     19  O   UNL     1      -5.121   4.436  -1.680  0.00  0.00    +0.000 OA
BRANCH  19  20
ATOM     20  C   UNL     1      -6.232   5.034  -2.283  0.00  0.00    +0.000 A 
ATOM     21  C   UNL     1      -6.241   6.447  -2.003  0.00  0.00    +0.000 A 
ATOM     22  C   UNL     1      -7.281   7.276  -2.387  0.00  0.00    +0.000 A 
ATOM     23  C   UNL     1      -8.284   6.744  -3.166  0.00  0.00    +0.000 A 
ATOM     24  C   UNL     1      -8.228   5.388  -3.503  0.00  0.00    +0.000 A 
ATOM     25  C   UNL     1      -7.303   4.421  -3.064  0.00  0.00    +0.000 A 
ATOM     26  C   UNL     1      -7.826   3.133  -3.682  0.00  0.00    +0.000 A 
ATOM     27  C   UNL     1      -7.835   1.691  -3.657  0.00  0.00    +0.000 A 
ATOM     28  C   UNL     1      -8.162   0.953  -4.852  0.00  0.00    +0.000 A 
ATOM     29  C   UNL     1      -8.475   1.600  -6.041  0.00  0.00    +0.000 A 
ATOM     30  C   UNL     1      -8.720   2.959  -6.002  0.00  0.00    +0.000 A 
ATOM     31  C   UNL     1      -8.522   3.611  -4.789  0.00  0.00    +0.000 A 
ATOM     32  N   UNL     1      -9.081   4.786  -4.382  0.00  0.00    +0.000 N 
ATOM     33  H   UNL     1      -9.838   5.244  -4.832  0.00  0.00    +0.000 HD
ENDBRANCH  19  20
ENDBRANCH  18  19
ENDBRANCH   1  18
TORSDOF 11
