REMARK  Name = Cedazuridine
REMARK  5 active torsions:
REMARK  status: ('A' for Active; 'I' for Inactive)
REMARK    1  A    between atoms: O_1  and  C_2
REMARK    2  A    between atoms: C_2  and  C_3
REMARK    3  A    between atoms: C_5  and  N_6
REMARK    4  A    between atoms: C_9  and  O_10
REMARK    5  A    between atoms: C_17  and  O_18
REMARK                            x       y       z     vdW  Elec       q    Type
REMARK                         _______ _______ _______ _____ _____    ______ ____
ROOT
ATOM      1  C   UNL     1       2.943  -1.163  -0.819  0.00  0.00    +0.000 C 
ATOM      2  O   UNL     1       3.304  -2.292  -0.001  0.00  0.00    +0.000 OA
ATOM      3  C   UNL     1       3.080  -3.485  -0.779  0.00  0.00    +0.000 C 
ATOM      4  C   UNL     1       2.317  -3.088  -2.057  0.00  0.00    +0.000 C 
ATOM      5  F   UNL     1       3.129  -3.128  -3.143  0.00  0.00    +0.000 F 
ATOM      6  F   UNL     1       1.257  -3.886  -2.320  0.00  0.00    +0.000 F 
ATOM      7  C   UNL     1       1.877  -1.661  -1.787  0.00  0.00    +0.000 C 
ENDROOT
BRANCH   3   8
ATOM      8  N   UNL     1       2.403  -4.442   0.085  0.00  0.00    +0.000 N 
ATOM      9  C   UNL     1       1.080  -4.092   0.598  0.00  0.00    +0.000 C 
ATOM     10  C   UNL     1       0.633  -4.999   1.726  0.00  0.00    +0.000 C 
ATOM     11  C   UNL     1       0.881  -6.428   1.308  0.00  0.00    +0.000 C 
ATOM     12  N   UNL     1       2.241  -6.600   0.922  0.00  0.00    +0.000 N 
ATOM     13  C   UNL     1       2.969  -5.685   0.239  0.00  0.00    +0.000 C 
ATOM     14  O   UNL     1       4.080  -5.995  -0.192  0.00  0.00    +0.000 OA
ATOM     15  H   UNL     1       2.711  -7.472   1.123  0.00  0.00    +0.000 HD
BRANCH  11  16
ATOM     16  O   UNL     1       0.067  -6.807   0.216  0.00  0.00    +0.000 OA
ATOM     17  H   UNL     1       0.345  -6.280  -0.552  0.00  0.00    +0.000 HD
ENDBRANCH  11  16
ENDBRANCH   3   8
BRANCH   7  18
ATOM     18  O   UNL     1       1.769  -0.830  -2.945  0.00  0.00    +0.000 OA
ATOM     19  H   UNL     1       2.562  -0.971  -3.495  0.00  0.00    +0.000 HD
ENDBRANCH   7  18
BRANCH   1  20
ATOM     20  C   UNL     1       2.476  -0.014   0.084  0.00  0.00    +0.000 C 
BRANCH  20  21
ATOM     21  O   UNL     1       1.058  -0.015   0.235  0.00  0.00    +0.000 OA
ATOM     22  H   UNL     1       0.808   0.806   0.692  0.00  0.00    +0.000 HD
ENDBRANCH  20  21
ENDBRANCH   1  20
TORSDOF 5
