REMARK  Name = Cefapirin
REMARK  10 active torsions:
REMARK  status: ('A' for Active; 'I' for Inactive)
REMARK    1  A    between atoms: C_5  and  C_6
REMARK    2  A    between atoms: C_6  and  O_7
REMARK    3  A    between atoms: O_7  and  C_8
REMARK    4  A    between atoms: C_8  and  C_9
REMARK    5  A    between atoms: CA_11  and  C_27
REMARK    6  A    between atoms: CA_15  and  N_16
REMARK    7  A    between atoms: C_17  and  C_19
REMARK    8  A    between atoms: C_19  and  S_20
REMARK    9  A    between atoms: S_20  and  C_21
REMARK   10  A    between atoms: C_27  and  O_28
REMARK                            x       y       z     vdW  Elec       q    Type
REMARK                         _______ _______ _______ _____ _____    ______ ____
ROOT
ATOM      1  C   UNL     1       2.138  -0.101  -0.002  0.00  0.00    +0.000 C 
ATOM      2  S   UNL     1       2.583   0.218   1.722  0.00  0.00    +0.000 S 
ATOM      3  C   UNL     1       2.067   1.967   1.636  0.00  0.00    +0.000 C 
ATOM      4  C   UNL     1       2.727   2.724   0.503  0.00  0.00    +0.000 C 
ATOM      5  CA  UNL     1       3.179   2.118  -0.635  0.00  0.00    +0.000 C 
ATOM      6  N   UNL     1       2.953   0.771  -0.856  0.00  0.00    +0.000 N 
ATOM      7  C   UNL     1       3.784  -0.221  -1.281  0.00  0.00    +0.000 C 
ATOM      8  O   UNL     1       4.812  -0.146  -1.907  0.00  0.00    +0.000 OA
ATOM      9  CA  UNL     1       2.827  -1.315  -0.710  0.00  0.00    +0.000 C 
ENDROOT
BRANCH   9  10
ATOM     10  N   UNL     1       3.354  -2.469   0.120  0.00  0.00    +0.000 N 
ATOM     11  C   UNL     1       2.620  -3.654   0.165  0.00  0.00    +0.000 C 
ATOM     12  O   UNL     1       1.524  -3.701  -0.396  0.00  0.00    +0.000 OA
ATOM     13  H   UNL     1       4.260  -2.413   0.574  0.00  0.00    +0.000 HD
BRANCH  11  14
ATOM     14  C   UNL     1       3.247  -4.856   0.911  0.00  0.00    +0.000 C 
BRANCH  14  15
ATOM     15  S   UNL     1       2.105  -6.316   0.804  0.00  0.00    +0.000 S 
BRANCH  15  16
ATOM     16  C   UNL     1       2.885  -7.569   1.806  0.00  0.00    +0.000 A 
ATOM     17  C   UNL     1       4.132  -8.108   1.499  0.00  0.00    +0.000 A 
ATOM     18  C   UNL     1       4.634  -9.115   2.312  0.00  0.00    +0.000 A 
ATOM     19  N   UNL     1       3.977  -9.626   3.375  0.00  0.00    +0.000 NA
ATOM     20  C   UNL     1       2.750  -9.126   3.623  0.00  0.00    +0.000 A 
ATOM     21  C   UNL     1       2.167  -8.117   2.872  0.00  0.00    +0.000 A 
ENDBRANCH  15  16
ENDBRANCH  14  15
ENDBRANCH  11  14
ENDBRANCH   9  10
BRANCH   5  22
ATOM     22  C   UNL     1       3.899   2.972  -1.677  0.00  0.00    +0.000 C 
ATOM     23  OXT UNL     1       4.108   4.171  -1.545  0.00  0.00    +0.000 OA
BRANCH  22  24
ATOM     24  O   UNL     1       4.231   2.370  -2.833  0.00  0.00    +0.000 OA
ATOM     25  H   UNL     1       4.241   1.394  -2.829  0.00  0.00    +0.000 HD
ENDBRANCH  22  24
ENDBRANCH   5  22
BRANCH   4  26
ATOM     26  C   UNL     1       2.881   4.232   0.736  0.00  0.00    +0.000 C 
BRANCH  26  27
ATOM     27  O   UNL     1       2.333   4.672   1.989  0.00  0.00    +0.000 OA
BRANCH  27  28
ATOM     28  C   UNL     1       2.407   5.971   2.377  0.00  0.00    +0.000 C 
ATOM     29  C   UNL     1       3.017   6.995   1.456  0.00  0.00    +0.000 C 
ATOM     30  O   UNL     1       1.963   6.309   3.472  0.00  0.00    +0.000 OA
ENDBRANCH  27  28
ENDBRANCH  26  27
ENDBRANCH   4  26
TORSDOF 9
