REMARK  Name = Cefamandole nafate
REMARK  11 active torsions:
REMARK  status: ('A' for Active; 'I' for Inactive)
REMARK    1  A    between atoms: C_5  and  C_6
REMARK    2  A    between atoms: C_6  and  S_7
REMARK    3  A    between atoms: S_7  and  C_8
REMARK    4  A    between atoms: N_12  and  C_13
REMARK    5  A    between atoms: CA_14  and  C_32
REMARK    6  A    between atoms: CA_18  and  N_19
REMARK    7  A    between atoms: C_20  and  C_22
REMARK    8  A    between atoms: C_22  and  O_23
REMARK    9  A    between atoms: C_22  and  C_26
REMARK   10  A    between atoms: O_23  and  C_24
REMARK   11  A    between atoms: C_32  and  O_33
REMARK                            x       y       z     vdW  Elec       q    Type
REMARK                         _______ _______ _______ _____ _____    ______ ____
ROOT
ATOM      1  C   UNL     1       2.407  -5.068  -6.432  0.00  0.00    +0.000 C 
ATOM      2  S   UNL     1       4.100  -5.458  -6.875  0.00  0.00    +0.000 S 
ATOM      3  C   UNL     1       3.922  -4.721  -8.523  0.00  0.00    +0.000 C 
ATOM      4  C   UNL     1       2.757  -5.267  -9.336  0.00  0.00    +0.000 C 
ATOM      5  CA  UNL     1       1.641  -5.784  -8.735  0.00  0.00    +0.000 C 
ATOM      6  N   UNL     1       1.491  -5.727  -7.363  0.00  0.00    +0.000 N 
ATOM      7  C   UNL     1       1.068  -6.668  -6.476  0.00  0.00    +0.000 C 
ATOM      8  O   UNL     1       0.433  -7.672  -6.665  0.00  0.00    +0.000 OA
ATOM      9  CA  UNL     1       1.764  -5.914  -5.301  0.00  0.00    +0.000 C 
ENDROOT
BRANCH   9  10
ATOM     10  N   UNL     1       2.591  -6.756  -4.369  0.00  0.00    +0.000 N 
ATOM     11  C   UNL     1       1.924  -7.342  -3.295  0.00  0.00    +0.000 C 
ATOM     12  O   UNL     1       0.693  -7.311  -3.244  0.00  0.00    +0.000 OA
ATOM     13  H   UNL     1       3.600  -6.627  -4.315  0.00  0.00    +0.000 HD
BRANCH  11  14
ATOM     14  C   UNL     1       2.783  -7.953  -2.148  0.00  0.00    +0.000 C 
BRANCH  14  15
ATOM     15  C   UNL     1       3.552  -6.868  -1.383  0.00  0.00    +0.000 A 
ATOM     16  C   UNL     1       4.386  -7.189  -0.297  0.00  0.00    +0.000 A 
ATOM     17  C   UNL     1       4.912  -6.172   0.514  0.00  0.00    +0.000 A 
ATOM     18  C   UNL     1       4.712  -4.830   0.191  0.00  0.00    +0.000 A 
ATOM     19  C   UNL     1       3.943  -4.497  -0.910  0.00  0.00    +0.000 A 
ATOM     20  C   UNL     1       3.359  -5.504  -1.670  0.00  0.00    +0.000 A 
ENDBRANCH  14  15
BRANCH  14  21
ATOM     21  O   UNL     1       1.966  -8.620  -1.157  0.00  0.00    +0.000 OA
BRANCH  21  22
ATOM     22  C   UNL     1       1.090  -9.570  -1.557  0.00  0.00    +0.000 C 
ATOM     23  O   UNL     1       0.345 -10.168  -0.794  0.00  0.00    +0.000 OA
ENDBRANCH  21  22
ENDBRANCH  14  21
ENDBRANCH  11  14
ENDBRANCH   9  10
BRANCH   5  24
ATOM     24  C   UNL     1       0.532  -6.379  -9.599  0.00  0.00    +0.000 C 
ATOM     25  OXT UNL     1       0.580  -6.416 -10.821  0.00  0.00    +0.000 OA
BRANCH  24  26
ATOM     26  O   UNL     1      -0.591  -6.772  -8.968  0.00  0.00    +0.000 OA
ATOM     27  H   UNL     1      -0.526  -6.951  -8.009  0.00  0.00    +0.000 HD
ENDBRANCH  24  26
ENDBRANCH   5  24
BRANCH   4  28
ATOM     28  C   UNL     1       2.922  -5.212 -10.875  0.00  0.00    +0.000 C 
BRANCH  28  29
ATOM     29  S   UNL     1       4.467  -4.424 -11.442  0.00  0.00    +0.000 S 
BRANCH  29  30
ATOM     30  C   UNL     1       4.433  -4.536 -13.158  0.00  0.00    +0.000 A 
ATOM     31  N   UNL     1       5.287  -5.198 -13.905  0.00  0.00    +0.000 NA
ATOM     32  N   UNL     1       5.034  -4.809 -15.201  0.00  0.00    +0.000 NA
ATOM     33  N   UNL     1       4.062  -3.907 -15.247  0.00  0.00    +0.000 NA
ATOM     34  N   UNL     1       3.686  -3.733 -13.968  0.00  0.00    +0.000 N 
ATOM     35  C   UNL     1       2.672  -2.779 -13.624  0.00  0.00    +0.000 C 
ENDBRANCH  29  30
ENDBRANCH  28  29
ENDBRANCH   4  28
TORSDOF 10
