REMARK  Name = Cefazolin
REMARK  9 active torsions:
REMARK  status: ('A' for Active; 'I' for Inactive)
REMARK    1  A    between atoms: C_5  and  C_6
REMARK    2  A    between atoms: C_6  and  S_7
REMARK    3  A    between atoms: S_7  and  C_8
REMARK    4  A    between atoms: C_11  and  C_12
REMARK    5  A    between atoms: CA_14  and  C_28
REMARK    6  A    between atoms: CA_18  and  N_19
REMARK    7  A    between atoms: C_20  and  C_22
REMARK    8  A    between atoms: C_22  and  N_23
REMARK    9  A    between atoms: C_28  and  O_29
REMARK                            x       y       z     vdW  Elec       q    Type
REMARK                         _______ _______ _______ _____ _____    ______ ____
ROOT
ATOM      1  C   UNL     1       2.013   0.006   0.082  0.00  0.00    +0.000 C 
ATOM      2  S   UNL     1       2.461   0.292   1.805  0.00  0.00    +0.000 S 
ATOM      3  C   UNL     1       1.941   2.029   1.731  0.00  0.00    +0.000 C 
ATOM      4  C   UNL     1       2.602   2.839   0.625  0.00  0.00    +0.000 C 
ATOM      5  CA  UNL     1       3.056   2.240  -0.521  0.00  0.00    +0.000 C 
ATOM      6  N   UNL     1       2.833   0.889  -0.754  0.00  0.00    +0.000 N 
ATOM      7  C   UNL     1       3.662  -0.103  -1.189  0.00  0.00    +0.000 C 
ATOM      8  O   UNL     1       4.694  -0.033  -1.806  0.00  0.00    +0.000 OA
ATOM      9  CA  UNL     1       2.703  -1.200  -0.630  0.00  0.00    +0.000 C 
ENDROOT
BRANCH   9  10
ATOM     10  N   UNL     1       3.230  -2.353   0.201  0.00  0.00    +0.000 N 
ATOM     11  C   UNL     1       2.484  -3.528   0.254  0.00  0.00    +0.000 C 
ATOM     12  O   UNL     1       1.370  -3.566  -0.265  0.00  0.00    +0.000 OA
ATOM     13  H   UNL     1       4.142  -2.296   0.645  0.00  0.00    +0.000 HD
BRANCH  11  14
ATOM     14  C   UNL     1       3.098  -4.716   0.982  0.00  0.00    +0.000 C 
BRANCH  14  15
ATOM     15  N   UNL     1       2.192  -5.849   1.008  0.00  0.00    +0.000 N 
ATOM     16  C   UNL     1       1.494  -6.345   2.064  0.00  0.00    +0.000 A 
ATOM     17  N   UNL     1       0.741  -7.333   1.640  0.00  0.00    +0.000 NA
ATOM     18  N   UNL     1       1.013  -7.461   0.298  0.00  0.00    +0.000 NA
ATOM     19  N   UNL     1       1.938  -6.588  -0.085  0.00  0.00    +0.000 NA
ENDBRANCH  14  15
ENDBRANCH  11  14
ENDBRANCH   9  10
BRANCH   5  20
ATOM     20  C   UNL     1       3.776   3.090  -1.564  0.00  0.00    +0.000 C 
ATOM     21  OXT UNL     1       3.992   4.287  -1.428  0.00  0.00    +0.000 OA
BRANCH  20  22
ATOM     22  O   UNL     1       4.107   2.487  -2.721  0.00  0.00    +0.000 OA
ATOM     23  H   UNL     1       4.112   1.512  -2.729  0.00  0.00    +0.000 HD
ENDBRANCH  20  22
ENDBRANCH   5  20
BRANCH   4  24
ATOM     24  C   UNL     1       2.735   4.372   0.895  0.00  0.00    +0.000 C 
BRANCH  24  25
ATOM     25  S   UNL     1       2.074   4.918   2.509  0.00  0.00    +0.000 S 
BRANCH  25  26
ATOM     26  C   UNL     1       2.354   6.637   2.568  0.00  0.00    +0.000 A 
ATOM     27  N   UNL     1       1.648   7.488   1.858  0.00  0.00    +0.000 NA
ATOM     28  N   UNL     1       1.900   8.802   2.218  0.00  0.00    +0.000 NA
ATOM     29  C   UNL     1       2.784   8.895   3.189  0.00  0.00    +0.000 A 
ATOM     30  C   UNL     1       3.262  10.173   3.782  0.00  0.00    +0.000 C 
ATOM     31  S   UNL     1       3.372   7.376   3.741  0.00  0.00    +0.000 S 
ENDBRANCH  25  26
ENDBRANCH  24  25
ENDBRANCH   4  24
TORSDOF 8
