REMARK  Name = Cefalotin
REMARK  9 active torsions:
REMARK  status: ('A' for Active; 'I' for Inactive)
REMARK    1  A    between atoms: CA_2  and  N_3
REMARK    2  A    between atoms: C_4  and  C_6
REMARK    3  A    between atoms: C_6  and  C_7
REMARK    4  A    between atoms: CA_15  and  C_16
REMARK    5  A    between atoms: C_16  and  O_17
REMARK    6  A    between atoms: C_19  and  C_20
REMARK    7  A    between atoms: C_20  and  O_21
REMARK    8  A    between atoms: O_21  and  C_22
REMARK    9  A    between atoms: C_22  and  C_23
REMARK                            x       y       z     vdW  Elec       q    Type
REMARK                         _______ _______ _______ _____ _____    ______ ____
ROOT
ATOM      1  CA  UNL     1       2.077  -0.021   0.047  0.00  0.00    +0.000 C 
ATOM      2  C   UNL     1       2.729  -1.446   0.051  0.00  0.00    +0.000 C 
ATOM      3  O   UNL     1       2.812  -2.409   0.771  0.00  0.00    +0.000 OA
ATOM      4  N   UNL     1       3.114  -1.300  -1.245  0.00  0.00    +0.000 N 
ATOM      5  CA  UNL     1       4.055  -1.961  -1.994  0.00  0.00    +0.000 C 
ATOM      6  C   UNL     1       4.885  -1.265  -2.820  0.00  0.00    +0.000 C 
ATOM      7  C   UNL     1       4.926   0.241  -2.920  0.00  0.00    +0.000 C 
ATOM      8  S   UNL     1       4.207   1.157  -1.557  0.00  0.00    +0.000 S 
ATOM      9  C   UNL     1       2.762   0.112  -1.360  0.00  0.00    +0.000 C 
ENDROOT
BRANCH   1  10
ATOM     10  N   UNL     1       2.372   0.955   1.151  0.00  0.00    +0.000 N 
ATOM     11  C   UNL     1       3.651   1.143   1.638  0.00  0.00    +0.000 C 
ATOM     12  O   UNL     1       4.573   0.461   1.202  0.00  0.00    +0.000 OA
ATOM     13  H   UNL     1       1.601   1.363   1.670  0.00  0.00    +0.000 HD
BRANCH  11  14
ATOM     14  C   UNL     1       3.809   2.200   2.731  0.00  0.00    +0.000 C 
BRANCH  14  15
ATOM     15  C   UNL     1       5.261   2.515   3.009  0.00  0.00    +0.000 A 
ATOM     16  C   UNL     1       5.855   3.760   3.095  0.00  0.00    +0.000 A 
ATOM     17  C   UNL     1       7.262   3.682   3.317  0.00  0.00    +0.000 A 
ATOM     18  C   UNL     1       7.703   2.382   3.395  0.00  0.00    +0.000 A 
ATOM     19  S   UNL     1       6.412   1.273   3.327  0.00  0.00    +0.000 S 
ENDBRANCH  14  15
ENDBRANCH  11  14
ENDBRANCH   1  10
BRANCH   5  20
ATOM     20  C   UNL     1       4.156  -3.487  -1.957  0.00  0.00    +0.000 C 
ATOM     21  OXT UNL     1       4.958  -4.130  -2.623  0.00  0.00    +0.000 OA
BRANCH  20  22
ATOM     22  O   UNL     1       3.218  -4.144  -1.247  0.00  0.00    +0.000 OA
ATOM     23  H   UNL     1       2.764  -3.624  -0.554  0.00  0.00    +0.000 HD
ENDBRANCH  20  22
ENDBRANCH   5  20
BRANCH   6  24
ATOM     24  C   UNL     1       5.898  -1.974  -3.718  0.00  0.00    +0.000 C 
BRANCH  24  25
ATOM     25  O   UNL     1       6.681  -1.058  -4.499  0.00  0.00    +0.000 OA
BRANCH  25  26
ATOM     26  C   UNL     1       7.653  -1.496  -5.335  0.00  0.00    +0.000 C 
ATOM     27  C   UNL     1       7.873  -2.974  -5.510  0.00  0.00    +0.000 C 
ATOM     28  O   UNL     1       8.334  -0.687  -5.962  0.00  0.00    +0.000 OA
ENDBRANCH  25  26
ENDBRANCH  24  25
ENDBRANCH   6  24
TORSDOF 8
