REMARK  Name = Cefaclor
REMARK  6 active torsions:
REMARK  status: ('A' for Active; 'I' for Inactive)
REMARK    1  A    between atoms: CA_7  and  C_23
REMARK    2  A    between atoms: CA_11  and  N_12
REMARK    3  A    between atoms: C_13  and  CA_15
REMARK    4  A    between atoms: CA_15  and  N_16
REMARK    5  A    between atoms: CA_15  and  C_17
REMARK    6  A    between atoms: C_23  and  O_24
REMARK                            x       y       z     vdW  Elec       q    Type
REMARK                         _______ _______ _______ _____ _____    ______ ____
ROOT
ATOM      1  C   UNL     1       4.604  -1.138   6.741  0.00  0.00    +0.000 C 
ATOM      2  S   UNL     1       6.011  -0.183   6.125  0.00  0.00    +0.000 S 
ATOM      3  C   UNL     1       5.570   1.277   7.056  0.00  0.00    +0.000 C 
ATOM      4  C   UNL     1       4.127   1.692   6.968  0.00  0.00    +0.000 C 
ATOM      5 CL   UNL     1       4.023   3.414   7.249  0.00  0.00    +0.000 Cl
ATOM      6  CA  UNL     1       3.080   0.871   6.696  0.00  0.00    +0.000 C 
ATOM      7  N   UNL     1       3.340  -0.463   6.466  0.00  0.00    +0.000 N 
ATOM      8  C   UNL     1       2.782  -1.477   5.770  0.00  0.00    +0.000 C 
ATOM      9  O   UNL     1       1.662  -1.558   5.307  0.00  0.00    +0.000 OA
ATOM     10  CA  UNL     1       4.163  -2.252   5.753  0.00  0.00    +0.000 C 
ENDROOT
BRANCH  10  11
ATOM     11  N   UNL     1       4.902  -2.266   4.450  0.00  0.00    +0.000 N 
ATOM     12  C   UNL     1       4.576  -3.178   3.482  0.00  0.00    +0.000 C 
ATOM     13  O   UNL     1       3.657  -3.975   3.673  0.00  0.00    +0.000 OA
ATOM     14  H   UNL     1       5.654  -1.599   4.291  0.00  0.00    +0.000 HD
BRANCH  12  15
ATOM     15  CA  UNL     1       5.431  -3.145   2.182  0.00  0.00    +0.000 C 
BRANCH  15  16
ATOM     16  C   UNL     1       6.121  -4.481   1.983  0.00  0.00    +0.000 A 
ATOM     17  C   UNL     1       5.380  -5.675   1.957  0.00  0.00    +0.000 A 
ATOM     18  C   UNL     1       6.020  -6.910   1.977  0.00  0.00    +0.000 A 
ATOM     19  C   UNL     1       7.406  -6.969   1.897  0.00  0.00    +0.000 A 
ATOM     20  C   UNL     1       8.155  -5.793   1.859  0.00  0.00    +0.000 A 
ATOM     21  C   UNL     1       7.517  -4.552   1.910  0.00  0.00    +0.000 A 
ENDBRANCH  15  16
BRANCH  15  22
ATOM     22  N   UNL     1       4.557  -2.812   1.048  0.00  0.00    +0.000 NA
ATOM     23  H1  UNL     1       3.832  -3.531   1.006  0.00  0.00    +0.000 HD
ATOM     24  H2  UNL     1       5.091  -2.909   0.186  0.00  0.00    +0.000 HD
ENDBRANCH  15  22
ENDBRANCH  12  15
ENDBRANCH  10  11
BRANCH   6  25
ATOM     25  C   UNL     1       1.675   1.452   6.649  0.00  0.00    +0.000 C 
ATOM     26  OXT UNL     1       1.413   2.627   6.868  0.00  0.00    +0.000 OA
BRANCH  25  27
ATOM     27  O   UNL     1       0.657   0.594   6.450  0.00  0.00    +0.000 OA
ATOM     28  H   UNL     1       0.862  -0.310   6.133  0.00  0.00    +0.000 HD
ENDBRANCH  25  27
ENDBRANCH   6  25
TORSDOF 6
