REMARK  Name = Cefamandole
REMARK  10 active torsions:
REMARK  status: ('A' for Active; 'I' for Inactive)
REMARK    1  A    between atoms: C_5  and  C_6
REMARK    2  A    between atoms: C_6  and  S_7
REMARK    3  A    between atoms: S_7  and  C_8
REMARK    4  A    between atoms: N_12  and  C_13
REMARK    5  A    between atoms: CA_14  and  C_30
REMARK    6  A    between atoms: CA_18  and  N_19
REMARK    7  A    between atoms: C_20  and  C_22
REMARK    8  A    between atoms: C_22  and  O_23
REMARK    9  A    between atoms: C_22  and  C_24
REMARK   10  A    between atoms: C_30  and  O_31
REMARK                            x       y       z     vdW  Elec       q    Type
REMARK                         _______ _______ _______ _____ _____    ______ ____
ROOT
ATOM      1  C   UNL     1       2.370  -5.173  -6.425  0.00  0.00    +0.000 C 
ATOM      2  S   UNL     1       4.064  -5.559  -6.870  0.00  0.00    +0.000 S 
ATOM      3  C   UNL     1       3.885  -4.823  -8.518  0.00  0.00    +0.000 C 
ATOM      4  C   UNL     1       2.721  -5.369  -9.331  0.00  0.00    +0.000 C 
ATOM      5  CA  UNL     1       1.605  -5.886  -8.730  0.00  0.00    +0.000 C 
ATOM      6  N   UNL     1       1.456  -5.830  -7.358  0.00  0.00    +0.000 N 
ATOM      7  C   UNL     1       1.029  -6.773  -6.473  0.00  0.00    +0.000 C 
ATOM      8  O   UNL     1       0.385  -7.769  -6.670  0.00  0.00    +0.000 OA
ATOM      9  CA  UNL     1       1.724  -6.022  -5.294  0.00  0.00    +0.000 C 
ENDROOT
BRANCH   9  10
ATOM     10  N   UNL     1       2.549  -6.863  -4.363  0.00  0.00    +0.000 N 
ATOM     11  C   UNL     1       1.896  -7.450  -3.279  0.00  0.00    +0.000 C 
ATOM     12  O   UNL     1       0.668  -7.391  -3.180  0.00  0.00    +0.000 OA
ATOM     13  H   UNL     1       3.560  -6.748  -4.318  0.00  0.00    +0.000 HD
BRANCH  11  14
ATOM     14  C   UNL     1       2.783  -8.028  -2.138  0.00  0.00    +0.000 C 
BRANCH  14  15
ATOM     15  C   UNL     1       3.533  -6.947  -1.374  0.00  0.00    +0.000 A 
ATOM     16  C   UNL     1       4.360  -7.274  -0.287  0.00  0.00    +0.000 A 
ATOM     17  C   UNL     1       4.881  -6.262   0.527  0.00  0.00    +0.000 A 
ATOM     18  C   UNL     1       4.678  -4.920   0.203  0.00  0.00    +0.000 A 
ATOM     19  C   UNL     1       3.909  -4.584  -0.899  0.00  0.00    +0.000 A 
ATOM     20  C   UNL     1       3.331  -5.588  -1.662  0.00  0.00    +0.000 A 
ENDBRANCH  14  15
BRANCH  14  21
ATOM     21  O   UNL     1       1.962  -8.703  -1.178  0.00  0.00    +0.000 OA
ATOM     22  H   UNL     1       1.314  -8.044  -0.862  0.00  0.00    +0.000 HD
ENDBRANCH  14  21
ENDBRANCH  11  14
ENDBRANCH   9  10
BRANCH   5  23
ATOM     23  C   UNL     1       0.495  -6.481  -9.594  0.00  0.00    +0.000 C 
ATOM     24  OXT UNL     1       0.542  -6.516 -10.817  0.00  0.00    +0.000 OA
BRANCH  23  25
ATOM     25  O   UNL     1      -0.629  -6.870  -8.963  0.00  0.00    +0.000 OA
ATOM     26  H   UNL     1      -0.558  -7.059  -8.006  0.00  0.00    +0.000 HD
ENDBRANCH  23  25
ENDBRANCH   5  23
BRANCH   4  27
ATOM     27  C   UNL     1       2.886  -5.314 -10.871  0.00  0.00    +0.000 C 
BRANCH  27  28
ATOM     28  S   UNL     1       4.430  -4.525 -11.438  0.00  0.00    +0.000 S 
BRANCH  28  29
ATOM     29  C   UNL     1       4.396  -4.637 -13.154  0.00  0.00    +0.000 A 
ATOM     30  N   UNL     1       5.250  -5.300 -13.901  0.00  0.00    +0.000 NA
ATOM     31  N   UNL     1       4.997  -4.910 -15.198  0.00  0.00    +0.000 NA
ATOM     32  N   UNL     1       4.025  -4.008 -15.243  0.00  0.00    +0.000 NA
ATOM     33  N   UNL     1       3.649  -3.835 -13.964  0.00  0.00    +0.000 N 
ATOM     34  C   UNL     1       2.635  -2.881 -13.620  0.00  0.00    +0.000 C 
ENDBRANCH  28  29
ENDBRANCH  27  28
ENDBRANCH   4  27
TORSDOF 9
