REMARK  Name = Cefadroxil
REMARK  8 active torsions:
REMARK  status: ('A' for Active; 'I' for Inactive)
REMARK    1  A    between atoms: C_5  and  C_6
REMARK    2  A    between atoms: CA_7  and  C_24
REMARK    3  A    between atoms: CA_11  and  N_12
REMARK    4  A    between atoms: C_13  and  CA_15
REMARK    5  A    between atoms: CA_15  and  N_16
REMARK    6  A    between atoms: CA_15  and  C_17
REMARK    7  A    between atoms: C_20  and  O_21
REMARK    8  A    between atoms: C_24  and  O_25
REMARK                            x       y       z     vdW  Elec       q    Type
REMARK                         _______ _______ _______ _____ _____    ______ ____
ROOT
ATOM      1  N   UNL     1       3.276  -5.536   3.101  0.00  0.00    +0.000 N 
ATOM      2  C   UNL     1       3.555  -4.550   2.157  0.00  0.00    +0.000 C 
ATOM      3  O   UNL     1       4.081  -3.493   2.513  0.00  0.00    +0.000 OA
ATOM      4  H   UNL     1       3.116  -6.478   2.757  0.00  0.00    +0.000 HD
ENDROOT
BRANCH   1  14
ATOM      5  C   UNL     1       2.252  -4.850   5.478  0.00  0.00    +0.000 C 
ATOM      6  S   UNL     1       0.527  -5.015   4.960  0.00  0.00    +0.000 S 
ATOM      7  C   UNL     1      -0.091  -4.840   6.666  0.00  0.00    +0.000 C 
ATOM      8  C   UNL     1       0.579  -5.777   7.651  0.00  0.00    +0.000 C 
ATOM      9  C   UNL     1      -0.242  -5.946   8.917  0.00  0.00    +0.000 C 
ATOM     10  CA  UNL     1       1.776  -6.384   7.427  0.00  0.00    +0.000 C 
ATOM     11  N   UNL     1       2.544  -5.993   6.350  0.00  0.00    +0.000 N 
ATOM     12  C   UNL     1       3.301  -6.648   5.445  0.00  0.00    +0.000 C 
ATOM     13  O   UNL     1       3.691  -7.799   5.432  0.00  0.00    +0.000 OA
ATOM     14  CA  UNL     1       3.423  -5.358   4.567  0.00  0.00    +0.000 C 
BRANCH  10  15
ATOM     15  C   UNL     1       2.277  -7.431   8.411  0.00  0.00    +0.000 C 
ATOM     16  OXT UNL     1       1.658  -7.789   9.404  0.00  0.00    +0.000 OA
BRANCH  15  17
ATOM     17  O   UNL     1       3.515  -7.919   8.192  0.00  0.00    +0.000 OA
ATOM     18  H   UNL     1       3.885  -7.779   7.300  0.00  0.00    +0.000 HD
ENDBRANCH  15  17
ENDBRANCH  10  15
ENDBRANCH   1  14
BRANCH   2  19
ATOM     19  CA  UNL     1       3.163  -4.855   0.634  0.00  0.00    +0.000 C 
BRANCH  19  20
ATOM     20  C   UNL     1       2.187  -6.010   0.441  0.00  0.00    +0.000 A 
ATOM     21  C   UNL     1       2.121  -6.765  -0.736  0.00  0.00    +0.000 A 
ATOM     22  C   UNL     1       1.255  -7.870  -0.807  0.00  0.00    +0.000 A 
ATOM     23  C   UNL     1       0.543  -8.268   0.324  0.00  0.00    +0.000 A 
ATOM     24  C   UNL     1       0.580  -7.516   1.474  0.00  0.00    +0.000 A 
ATOM     25  C   UNL     1       1.271  -6.323   1.452  0.00  0.00    +0.000 A 
BRANCH  23  26
ATOM     26  O   UNL     1      -0.269  -9.358   0.357  0.00  0.00    +0.000 OA
ATOM     27  H   UNL     1      -0.328  -9.739  -0.531  0.00  0.00    +0.000 HD
ENDBRANCH  23  26
ENDBRANCH  19  20
BRANCH  19  28
ATOM     28  N   UNL     1       2.586  -3.647   0.016  0.00  0.00    +0.000 NA
ATOM     29  H1  UNL     1       1.695  -3.449   0.469  0.00  0.00    +0.000 HD
ATOM     30  H2  UNL     1       2.366  -3.843  -0.959  0.00  0.00    +0.000 HD
ENDBRANCH  19  28
ENDBRANCH   2  19
TORSDOF 7
