REMARK  Name = Cefdinir
REMARK  7 active torsions:
REMARK  status: ('A' for Active; 'I' for Inactive)
REMARK    1  A    between atoms: CB_5  and  CG1_6
REMARK    2  A    between atoms: CA_8  and  C_25
REMARK    3  A    between atoms: CA_12  and  N_13
REMARK    4  A    between atoms: C_14  and  C_16
REMARK    5  A    between atoms: C_16  and  C_19
REMARK    6  A    between atoms: N_17  and  O_18
REMARK    7  A    between atoms: C_25  and  O_26
REMARK                            x       y       z     vdW  Elec       q    Type
REMARK                         _______ _______ _______ _____ _____    ______ ____
ROOT
ATOM      1  N   UNL     1       3.249  -2.256   0.086  0.00  0.00    +0.000 N 
ATOM      2  C   UNL     1       2.563  -3.465   0.147  0.00  0.00    +0.000 C 
ATOM      3  O   UNL     1       1.452  -3.593  -0.355  0.00  0.00    +0.000 OA
ATOM      4  H   UNL     1       4.153  -2.232   0.554  0.00  0.00    +0.000 HD
ENDROOT
BRANCH   1  13
ATOM      5  C   UNL     1       2.072   0.093  -0.001  0.00  0.00    +0.000 C 
ATOM      6  S   UNL     1       2.525   0.375   1.723  0.00  0.00    +0.000 S 
ATOM      7  CG2 UNL     1       2.016   2.115   1.647  0.00  0.00    +0.000 C 
ATOM      8  CB  UNL     1       2.675   2.916   0.526  0.00  0.00    +0.000 C 
ATOM      9  CA  UNL     1       3.134   2.319  -0.619  0.00  0.00    +0.000 C 
ATOM     10  N   UNL     1       2.897   0.967  -0.841  0.00  0.00    +0.000 N 
ATOM     11  C   UNL     1       3.719  -0.032  -1.272  0.00  0.00    +0.000 C 
ATOM     12  O   UNL     1       4.750   0.032  -1.892  0.00  0.00    +0.000 OA
ATOM     13  CA  UNL     1       2.740  -1.117  -0.724  0.00  0.00    +0.000 C 
BRANCH   8  14
ATOM     14  CG1 UNL     1       2.775   4.360   0.827  0.00  0.00    +0.000 C 
ATOM     15  CD1 UNL     1       2.367   5.010   1.926  0.00  0.00    +0.000 C 
ENDBRANCH   8  14
BRANCH   9  16
ATOM     16  C   UNL     1       3.873   3.137  -1.688  0.00  0.00    +0.000 C 
ATOM     17  OXT UNL     1       4.144   4.326  -1.605  0.00  0.00    +0.000 OA
BRANCH  16  18
ATOM     18  O   UNL     1       4.162   2.501  -2.842  0.00  0.00    +0.000 OA
ATOM     19  H   UNL     1       4.183   1.528  -2.808  0.00  0.00    +0.000 HD
ENDBRANCH  16  18
ENDBRANCH   9  16
ENDBRANCH   1  13
BRANCH   2  20
ATOM     20  C   UNL     1       3.211  -4.641   0.916  0.00  0.00    +0.000 C 
ATOM     21  N   UNL     1       4.371  -4.584   1.528  0.00  0.00    +0.000 NA
BRANCH  20  22
ATOM     22  C   UNL     1       2.485  -5.924   1.051  0.00  0.00    +0.000 A 
ATOM     23  C   UNL     1       2.382  -6.610   2.250  0.00  0.00    +0.000 A 
ATOM     24  S   UNL     1       1.457  -8.036   2.060  0.00  0.00    +0.000 S 
ATOM     25  C   UNL     1       1.259  -7.678   0.392  0.00  0.00    +0.000 A 
ATOM     26  N   UNL     1       0.562  -8.508  -0.397  0.00  0.00    +0.000 N 
ATOM     27  N   UNL     1       1.833  -6.566  -0.011  0.00  0.00    +0.000 NA
ATOM     28  H   UNL     1       0.114  -9.341  -0.038  0.00  0.00    +0.000 HD
ATOM     29  H   UNL     1       0.420  -8.290  -1.374  0.00  0.00    +0.000 HD
ENDBRANCH  20  22
BRANCH  21  30
ATOM     30  O   UNL     1       5.044  -3.363   1.406  0.00  0.00    +0.000 OA
ATOM     31  H   UNL     1       5.880  -3.516   1.891  0.00  0.00    +0.000 HD
ENDBRANCH  21  30
ENDBRANCH   2  20
TORSDOF 7
