REMARK  Name = Cefditoren
REMARK  10 active torsions:
REMARK  status: ('A' for Active; 'I' for Inactive)
REMARK    1  A    between atoms: C_5  and  C_6
REMARK    2  A    between atoms: C_7  and  C_8
REMARK    3  A    between atoms: C_9  and  C_10
REMARK    4  A    between atoms: CA_14  and  C_32
REMARK    5  A    between atoms: CA_18  and  N_19
REMARK    6  A    between atoms: C_20  and  C_22
REMARK    7  A    between atoms: C_22  and  C_26
REMARK    8  A    between atoms: N_23  and  O_24
REMARK    9  A    between atoms: O_24  and  C_25
REMARK   10  A    between atoms: C_32  and  O_33
REMARK                            x       y       z     vdW  Elec       q    Type
REMARK                         _______ _______ _______ _____ _____    ______ ____
ROOT
ATOM      1  C   UNL     1       2.044  -0.047  -0.161  0.00  0.00    +0.000 C 
ATOM      2  S   UNL     1       2.163   0.214   1.573  0.00  0.00    +0.000 S 
ATOM      3  C   UNL     1       1.650   1.937   1.347  0.00  0.00    +0.000 C 
ATOM      4  C   UNL     1       2.537   2.808   0.466  0.00  0.00    +0.000 C 
ATOM      5  CA  UNL     1       3.127   2.231  -0.627  0.00  0.00    +0.000 C 
ATOM      6  N   UNL     1       2.945   0.865  -0.878  0.00  0.00    +0.000 N 
ATOM      7  C   UNL     1       3.804  -0.114  -1.251  0.00  0.00    +0.000 C 
ATOM      8  O   UNL     1       4.886  -0.023  -1.809  0.00  0.00    +0.000 OA
ATOM      9  CA  UNL     1       2.843  -1.235  -0.744  0.00  0.00    +0.000 C 
ENDROOT
BRANCH   9  10
ATOM     10  N   UNL     1       3.372  -2.338   0.156  0.00  0.00    +0.000 N 
ATOM     11  C   UNL     1       2.633  -3.524   0.276  0.00  0.00    +0.000 C 
ATOM     12  O   UNL     1       1.495  -3.602  -0.178  0.00  0.00    +0.000 OA
ATOM     13  H   UNL     1       4.305  -2.285   0.551  0.00  0.00    +0.000 HD
BRANCH  11  14
ATOM     14  C   UNL     1       3.270  -4.744   0.996  0.00  0.00    +0.000 C 
ATOM     15  N   UNL     1       3.260  -5.946   0.470  0.00  0.00    +0.000 NA
BRANCH  14  16
ATOM     16  C   UNL     1       3.892  -4.624   2.331  0.00  0.00    +0.000 A 
ATOM     17  C   UNL     1       4.093  -3.448   3.032  0.00  0.00    +0.000 A 
ATOM     18  S   UNL     1       4.861  -3.752   4.535  0.00  0.00    +0.000 S 
ATOM     19  C   UNL     1       4.861  -5.430   4.189  0.00  0.00    +0.000 A 
ATOM     20  N   UNL     1       5.362  -6.320   5.053  0.00  0.00    +0.000 N 
ATOM     21  N   UNL     1       4.348  -5.754   3.029  0.00  0.00    +0.000 NA
ATOM     22  H   UNL     1       5.754  -6.055   5.947  0.00  0.00    +0.000 HD
ATOM     23  H   UNL     1       5.335  -7.306   4.827  0.00  0.00    +0.000 HD
ENDBRANCH  14  16
BRANCH  15  24
ATOM     24  O   UNL     1       2.630  -5.989  -0.787  0.00  0.00    +0.000 OA
ATOM     25  C   UNL     1       2.596  -7.333  -1.269  0.00  0.00    +0.000 C 
ENDBRANCH  15  24
ENDBRANCH  11  14
ENDBRANCH   9  10
BRANCH   4  26
ATOM     26  C   UNL     1       2.679   4.251   0.887  0.00  0.00    +0.000 C 
ATOM     27  C   UNL     1       2.412   4.907   2.041  0.00  0.00    +0.000 C 
BRANCH  27  28
ATOM     28  C   UNL     1       2.019   4.272   3.247  0.00  0.00    +0.000 A 
ATOM     29  C   UNL     1       2.637   3.220   3.934  0.00  0.00    +0.000 A 
ATOM     30  C   UNL     1       3.880   2.493   3.474  0.00  0.00    +0.000 C 
ATOM     31  N   UNL     1       1.796   2.573   4.840  0.00  0.00    +0.000 NA
ATOM     32  C   UNL     1       0.660   3.228   4.951  0.00  0.00    +0.000 A 
ATOM     33  S   UNL     1       0.495   4.624   3.972  0.00  0.00    +0.000 S 
ENDBRANCH  27  28
ENDBRANCH   4  26
BRANCH   5  34
ATOM     34  C   UNL     1       3.951   3.077  -1.606  0.00  0.00    +0.000 C 
ATOM     35  OXT UNL     1       4.220   4.260  -1.466  0.00  0.00    +0.000 OA
BRANCH  34  36
ATOM     36  O   UNL     1       4.280   2.475  -2.766  0.00  0.00    +0.000 OA
ATOM     37  H   UNL     1       4.258   1.502  -2.762  0.00  0.00    +0.000 HD
ENDBRANCH  34  36
ENDBRANCH   5  34
TORSDOF 8
