REMARK  Name = Cefepime
REMARK  9 active torsions:
REMARK  status: ('A' for Active; 'I' for Inactive)
REMARK    1  A    between atoms: C_1  and  O_2
REMARK    2  A    between atoms: O_2  and  N_3
REMARK    3  A    between atoms: C_4  and  C_5
REMARK    4  A    between atoms: C_4  and  C_28
REMARK    5  A    between atoms: N_7  and  CA_8
REMARK    6  A    between atoms: C_16  and  C_17
REMARK    7  A    between atoms: C_17  and  N_18
REMARK    8  A    between atoms: N_18  and  C_19
REMARK    9  A    between atoms: CA_24  and  C_25
REMARK                            x       y       z     vdW  Elec       q    Type
REMARK                         _______ _______ _______ _____ _____    ______ ____
ROOT
ATOM      1  CA  UNL     1       5.437   2.411   1.729  0.00  0.00    +0.000 C 
ATOM      2  C   UNL     1       6.875   1.790   1.814  0.00  0.00    +0.000 C 
ATOM      3  O   UNL     1       7.374   0.872   2.362  0.00  0.00    +0.000 OA
ATOM      4  N   UNL     1       7.308   2.738   0.927  0.00  0.00    +0.000 N 
ATOM      5  C   UNL     1       6.192   3.587   1.143  0.00  0.00    +0.000 C 
ATOM      6  S   UNL     1       6.703   5.075   1.932  0.00  0.00    +0.000 S 
ATOM      7  C   UNL     1       7.395   5.350   0.289  0.00  0.00    +0.000 C 
ATOM      8  C   UNL     1       8.481   4.459  -0.092  0.00  0.00    +0.000 C 
ATOM      9  CA  UNL     1       8.426   3.150   0.251  0.00  0.00    +0.000 C 
ENDROOT
BRANCH   1  12
ATOM     10  C   UNL     1       3.627   3.923   2.588  0.00  0.00    +0.000 C 
ATOM     11  O   UNL     1       2.953   4.254   3.564  0.00  0.00    +0.000 OA
ATOM     12  N   UNL     1       4.506   2.855   2.750  0.00  0.00    +0.000 N 
ATOM     13  H   UNL     1       4.284   2.245   3.528  0.00  0.00    +0.000 HD
BRANCH  10  15
ATOM     14  N   UNL     1       3.797   4.443  -0.029  0.00  0.00    +0.000 NA
ATOM     15  C   UNL     1       3.532   4.777   1.248  0.00  0.00    +0.000 C 
BRANCH  15  16
ATOM     16  C   UNL     1       3.044   6.198   1.422  0.00  0.00    +0.000 A 
ATOM     17  C   UNL     1       3.059   7.026   2.546  0.00  0.00    +0.000 A 
ATOM     18  S   UNL     1       2.124   8.457   2.255  0.00  0.00    +0.000 S 
ATOM     19  C   UNL     1       1.860   7.939   0.648  0.00  0.00    +0.000 A 
ATOM     20  N   UNL     1       1.143   8.640  -0.235  0.00  0.00    +0.000 N 
ATOM     21  N   UNL     1       2.426   6.808   0.327  0.00  0.00    +0.000 NA
ATOM     22  H   UNL     1       0.598   9.449   0.023  0.00  0.00    +0.000 HD
ATOM     23  H   UNL     1       0.960   8.220  -1.139  0.00  0.00    +0.000 HD
ENDBRANCH  15  16
BRANCH  14  25
ATOM     24  C   UNL     1       5.220   2.825  -1.373  0.00  0.00    +0.000 C 
ATOM     25  O   UNL     1       4.089   3.065  -0.406  0.00  0.00    +0.000 OA
ENDBRANCH  14  25
ENDBRANCH  10  15
ENDBRANCH   1  12
BRANCH   9  26
ATOM     26  C   UNL     1       9.601   2.201  -0.129  0.00  0.00    +0.000 C 
ATOM     27  O   UNL     1       9.339   0.977  -0.063  0.00  0.00    +0.000 OA
ATOM     28  OXT UNL     1      10.627   2.795  -0.580  0.00  0.00    +0.000 OA
ENDBRANCH   9  26
BRANCH   8  29
ATOM     29  C   UNL     1       9.626   5.192  -0.703  0.00  0.00    +0.000 C 
BRANCH  29  30
ATOM     30  N   UNL     1       9.473   6.795  -1.039  0.00  0.00    +0.000 N 
ATOM     31  C   UNL     1      10.923   7.020  -1.502  0.00  0.00    +0.000 C 
ATOM     32  C   UNL     1       9.233   7.927   0.049  0.00  0.00    +0.000 C 
ATOM     33  C   UNL     1       7.733   8.219   0.145  0.00  0.00    +0.000 C 
ATOM     34  C   UNL     1       7.187   7.815  -1.228  0.00  0.00    +0.000 C 
ATOM     35  C   UNL     1       8.268   6.980  -2.003  0.00  0.00    +0.000 C 
ENDBRANCH  29  30
ENDBRANCH   8  29
TORSDOF 7
