REMARK  Name = Cefixime
REMARK  10 active torsions:
REMARK  status: ('A' for Active; 'I' for Inactive)
REMARK    1  A    between atoms: CB_5  and  CG1_6
REMARK    2  A    between atoms: CA_8  and  C_29
REMARK    3  A    between atoms: CA_12  and  N_13
REMARK    4  A    between atoms: C_14  and  C_16
REMARK    5  A    between atoms: C_16  and  C_23
REMARK    6  A    between atoms: N_17  and  O_18
REMARK    7  A    between atoms: O_18  and  C_19
REMARK    8  A    between atoms: C_19  and  C_20
REMARK    9  A    between atoms: C_20  and  O_21
REMARK   10  A    between atoms: C_29  and  O_30
REMARK                            x       y       z     vdW  Elec       q    Type
REMARK                         _______ _______ _______ _____ _____    ______ ____
ROOT
ATOM      1  N   UNL     1       3.268  -2.316   0.035  0.00  0.00    +0.000 N 
ATOM      2  C   UNL     1       2.597  -3.528   0.098  0.00  0.00    +0.000 C 
ATOM      3  O   UNL     1       1.491  -3.667  -0.402  0.00  0.00    +0.000 OA
ATOM      4  H   UNL     1       4.144  -2.344   0.523  0.00  0.00    +0.000 HD
ENDROOT
BRANCH   1  13
ATOM      5  C   UNL     1       2.131   0.054  -0.043  0.00  0.00    +0.000 C 
ATOM      6  S   UNL     1       2.603   0.325   1.679  0.00  0.00    +0.000 S 
ATOM      7  CG2 UNL     1       2.093   2.070   1.612  0.00  0.00    +0.000 C 
ATOM      8  CB  UNL     1       2.749   2.872   0.490  0.00  0.00    +0.000 C 
ATOM      9  CA  UNL     1       3.207   2.274  -0.656  0.00  0.00    +0.000 C 
ATOM     10  N   UNL     1       2.962   0.922  -0.883  0.00  0.00    +0.000 N 
ATOM     11  C   UNL     1       3.774  -0.083  -1.316  0.00  0.00    +0.000 C 
ATOM     12  O   UNL     1       4.818  -0.039  -1.909  0.00  0.00    +0.000 OA
ATOM     13  CA  UNL     1       2.783  -1.164  -0.770  0.00  0.00    +0.000 C 
BRANCH   8  14
ATOM     14  CG1 UNL     1       2.849   4.317   0.791  0.00  0.00    +0.000 C 
ATOM     15  CD1 UNL     1       2.440   4.968   1.889  0.00  0.00    +0.000 C 
ENDBRANCH   8  14
BRANCH   9  16
ATOM     16  C   UNL     1       3.946   3.095  -1.725  0.00  0.00    +0.000 C 
ATOM     17  OXT UNL     1       4.211   4.285  -1.643  0.00  0.00    +0.000 OA
BRANCH  16  18
ATOM     18  O   UNL     1       4.234   2.460  -2.879  0.00  0.00    +0.000 OA
ATOM     19  H   UNL     1       4.261   1.488  -2.848  0.00  0.00    +0.000 HD
ENDBRANCH  16  18
ENDBRANCH   9  16
ENDBRANCH   1  13
BRANCH   2  20
ATOM     20  C   UNL     1       3.290  -4.685   0.882  0.00  0.00    +0.000 C 
ATOM     21  N   UNL     1       4.461  -4.580   1.483  0.00  0.00    +0.000 NA
BRANCH  20  22
ATOM     22  C   UNL     1       2.576  -5.974   1.022  0.00  0.00    +0.000 A 
ATOM     23  C   UNL     1       2.464  -6.657   2.220  0.00  0.00    +0.000 A 
ATOM     24  S   UNL     1       1.530  -8.078   2.027  0.00  0.00    +0.000 S 
ATOM     25  C   UNL     1       1.335  -7.719   0.358  0.00  0.00    +0.000 A 
ATOM     26  N   UNL     1       0.635  -8.545  -0.432  0.00  0.00    +0.000 N 
ATOM     27  N   UNL     1       1.917  -6.610  -0.041  0.00  0.00    +0.000 NA
ATOM     28  H   UNL     1       0.188  -9.381  -0.075  0.00  0.00    +0.000 HD
ATOM     29  H   UNL     1       0.495  -8.330  -1.411  0.00  0.00    +0.000 HD
ENDBRANCH  20  22
BRANCH  21  30
ATOM     30  O   UNL     1       5.082  -3.324   1.314  0.00  0.00    +0.000 OA
BRANCH  30  31
ATOM     31  C   UNL     1       6.354  -3.256   1.952  0.00  0.00    +0.000 C 
BRANCH  31  32
ATOM     32  C   UNL     1       7.001  -1.878   1.775  0.00  0.00    +0.000 C 
ATOM     33  O   UNL     1       8.096  -1.597   2.244  0.00  0.00    +0.000 OA
BRANCH  32  34
ATOM     34  O   UNL     1       6.310  -0.952   1.076  0.00  0.00    +0.000 OA
ATOM     35  H   UNL     1       5.467  -1.218   0.688  0.00  0.00    +0.000 HD
ENDBRANCH  32  34
ENDBRANCH  31  32
ENDBRANCH  30  31
ENDBRANCH  21  30
ENDBRANCH   2  20
TORSDOF 10
