REMARK  Name = Cefmenoxime
REMARK  11 active torsions:
REMARK  status: ('A' for Active; 'I' for Inactive)
REMARK    1  A    between atoms: C_5  and  C_6
REMARK    2  A    between atoms: C_6  and  S_7
REMARK    3  A    between atoms: S_7  and  C_8
REMARK    4  A    between atoms: N_12  and  C_13
REMARK    5  A    between atoms: CA_14  and  C_32
REMARK    6  A    between atoms: CA_18  and  N_19
REMARK    7  A    between atoms: C_20  and  C_22
REMARK    8  A    between atoms: C_22  and  C_26
REMARK    9  A    between atoms: N_23  and  O_24
REMARK   10  A    between atoms: O_24  and  C_25
REMARK   11  A    between atoms: C_32  and  O_33
REMARK                            x       y       z     vdW  Elec       q    Type
REMARK                         _______ _______ _______ _____ _____    ______ ____
ROOT
ATOM      1  C   UNL     1       2.163   0.041   0.007  0.00  0.00    +0.000 C 
ATOM      2  S   UNL     1       2.617   0.314   1.731  0.00  0.00    +0.000 S 
ATOM      3  C   UNL     1       2.108   2.050   1.669  0.00  0.00    +0.000 C 
ATOM      4  C   UNL     1       2.770   2.859   0.564  0.00  0.00    +0.000 C 
ATOM      5  CA  UNL     1       3.219   2.267  -0.586  0.00  0.00    +0.000 C 
ATOM      6  N   UNL     1       2.984   0.923  -0.828  0.00  0.00    +0.000 N 
ATOM      7  C   UNL     1       3.810  -0.070  -1.267  0.00  0.00    +0.000 C 
ATOM      8  O   UNL     1       4.842   0.006  -1.883  0.00  0.00    +0.000 OA
ATOM      9  CA  UNL     1       2.834  -1.162  -0.721  0.00  0.00    +0.000 C 
ENDROOT
BRANCH   9  10
ATOM     10  N   UNL     1       3.350  -2.296   0.089  0.00  0.00    +0.000 N 
ATOM     11  C   UNL     1       2.671  -3.510   0.162  0.00  0.00    +0.000 C 
ATOM     12  O   UNL     1       1.559  -3.640  -0.337  0.00  0.00    +0.000 OA
ATOM     13  H   UNL     1       4.250  -2.255   0.560  0.00  0.00    +0.000 HD
BRANCH  11  14
ATOM     14  C   UNL     1       3.329  -4.686   0.936  0.00  0.00    +0.000 C 
ATOM     15  N   UNL     1       4.491  -4.618   1.547  0.00  0.00    +0.000 NA
BRANCH  14  16
ATOM     16  C   UNL     1       2.596  -5.967   1.067  0.00  0.00    +0.000 A 
ATOM     17  C   UNL     1       2.482  -6.652   2.265  0.00  0.00    +0.000 A 
ATOM     18  S   UNL     1       1.551  -8.074   2.071  0.00  0.00    +0.000 S 
ATOM     19  C   UNL     1       1.356  -7.714   0.403  0.00  0.00    +0.000 A 
ATOM     20  N   UNL     1       0.657  -8.541  -0.387  0.00  0.00    +0.000 N 
ATOM     21  N   UNL     1       1.936  -6.603   0.003  0.00  0.00    +0.000 NA
ATOM     22  H   UNL     1       0.212  -9.377  -0.028  0.00  0.00    +0.000 HD
ATOM     23  H   UNL     1       0.518  -8.327  -1.365  0.00  0.00    +0.000 HD
ENDBRANCH  14  16
BRANCH  15  24
ATOM     24  O   UNL     1       5.119  -3.376   1.392  0.00  0.00    +0.000 OA
ATOM     25  C   UNL     1       6.385  -3.337   2.036  0.00  0.00    +0.000 C 
ENDBRANCH  15  24
ENDBRANCH  11  14
ENDBRANCH   9  10
BRANCH   5  26
ATOM     26  C   UNL     1       3.934   3.120  -1.630  0.00  0.00    +0.000 C 
ATOM     27  OXT UNL     1       4.127   4.322  -1.501  0.00  0.00    +0.000 OA
BRANCH  26  28
ATOM     28  O   UNL     1       4.262   2.518  -2.789  0.00  0.00    +0.000 OA
ATOM     29  H   UNL     1       4.292   1.542  -2.785  0.00  0.00    +0.000 HD
ENDBRANCH  26  28
ENDBRANCH   5  26
BRANCH   4  30
ATOM     30  C   UNL     1       2.911   4.379   0.835  0.00  0.00    +0.000 C 
BRANCH  30  31
ATOM     31  S   UNL     1       2.187   4.937   2.414  0.00  0.00    +0.000 S 
BRANCH  31  32
ATOM     32  C   UNL     1       2.517   6.623   2.500  0.00  0.00    +0.000 A 
ATOM     33  N   UNL     1       3.260   7.219   3.404  0.00  0.00    +0.000 NA
ATOM     34  N   UNL     1       3.042   8.569   3.241  0.00  0.00    +0.000 NA
ATOM     35  N   UNL     1       2.164   8.796   2.272  0.00  0.00    +0.000 NA
ATOM     36  N   UNL     1       1.832   7.578   1.810  0.00  0.00    +0.000 N 
ATOM     37  C   UNL     1       0.854   7.429   0.772  0.00  0.00    +0.000 C 
ENDBRANCH  31  32
ENDBRANCH  30  31
ENDBRANCH   4  30
TORSDOF 9
