REMARK  Name = Cefmetazole
REMARK  13 active torsions:
REMARK  status: ('A' for Active; 'I' for Inactive)
REMARK    1  A    between atoms: C_5  and  C_6
REMARK    2  A    between atoms: C_6  and  S_7
REMARK    3  A    between atoms: S_7  and  C_8
REMARK    4  A    between atoms: N_12  and  C_13
REMARK    5  A    between atoms: C_14  and  C_29
REMARK    6  A    between atoms: C_18  and  N_19
REMARK    7  A    between atoms: C_18  and  O_27
REMARK    8  A    between atoms: C_20  and  C_22
REMARK    9  A    between atoms: C_22  and  S_23
REMARK   10  A    between atoms: S_23  and  C_24
REMARK   11  A    between atoms: C_24  and  C_25
REMARK   12  A    between atoms: O_27  and  C_28
REMARK   13  A    between atoms: C_29  and  O_30
REMARK                            x       y       z     vdW  Elec       q    Type
REMARK                         _______ _______ _______ _____ _____    ______ ____
ROOT
ATOM      1  C   UNL     1       2.035  -0.058   0.111  0.00  0.00    +0.000 C 
ATOM      2  S   UNL     1       2.194   0.241   1.863  0.00  0.00    +0.000 S 
ATOM      3  C   UNL     1       1.911   1.998   1.750  0.00  0.00    +0.000 C 
ATOM      4  C   UNL     1       2.623   2.765   0.651  0.00  0.00    +0.000 C 
ATOM      5  C   UNL     1       3.100   2.162  -0.479  0.00  0.00    +0.000 C 
ATOM      6  N   UNL     1       2.899   0.812  -0.681  0.00  0.00    +0.000 N 
ATOM      7  C   UNL     1       3.704  -0.172  -1.173  0.00  0.00    +0.000 C 
ATOM      8  O   UNL     1       4.681  -0.067  -1.871  0.00  0.00    +0.000 OA
ATOM      9  C   UNL     1       2.773  -1.318  -0.527  0.00  0.00    +0.000 C 
ENDROOT
BRANCH   9  10
ATOM     10  N   UNL     1       3.437  -2.347   0.337  0.00  0.00    +0.000 N 
ATOM     11  C   UNL     1       4.345  -2.111   1.330  0.00  0.00    +0.000 C 
ATOM     12  O   UNL     1       4.802  -0.989   1.509  0.00  0.00    +0.000 OA
ATOM     13  H   UNL     1       3.410  -3.297  -0.008  0.00  0.00    +0.000 HD
BRANCH  11  14
ATOM     14  C   UNL     1       4.730  -3.360   2.156  0.00  0.00    +0.000 C 
BRANCH  14  15
ATOM     15  S   UNL     1       5.713  -2.756   3.568  0.00  0.00    +0.000 S 
BRANCH  15  16
ATOM     16  C   UNL     1       6.290  -4.258   4.415  0.00  0.00    +0.000 C 
BRANCH  16  17
ATOM     17  C   UNL     1       7.160  -3.779   5.566  0.00  0.00    +0.000 C 
ATOM     18  N   UNL     1       7.882  -3.382   6.520  0.00  0.00    +0.000 NA
ENDBRANCH  16  17
ENDBRANCH  15  16
ENDBRANCH  14  15
ENDBRANCH  11  14
ENDBRANCH   9  10
BRANCH   9  19
ATOM     19  O   UNL     1       1.963  -2.020  -1.523  0.00  0.00    +0.000 OA
ATOM     20  C   UNL     1       1.036  -2.959  -0.980  0.00  0.00    +0.000 C 
ENDBRANCH   9  19
BRANCH   5  21
ATOM     21  C   UNL     1       3.811   3.012  -1.535  0.00  0.00    +0.000 C 
ATOM     22  O   UNL     1       3.993   4.218  -1.421  0.00  0.00    +0.000 OA
BRANCH  21  23
ATOM     23  O   UNL     1       4.116   2.410  -2.702  0.00  0.00    +0.000 OA
ATOM     24  H   UNL     1       4.176   1.433  -2.686  0.00  0.00    +0.000 HD
ENDBRANCH  21  23
ENDBRANCH   5  21
BRANCH   4  25
ATOM     25  C   UNL     1       2.778   4.283   0.917  0.00  0.00    +0.000 C 
BRANCH  25  26
ATOM     26  S   UNL     1       2.056   4.843   2.498  0.00  0.00    +0.000 S 
BRANCH  26  27
ATOM     27  C   UNL     1       2.388   6.524   2.582  0.00  0.00    +0.000 A 
ATOM     28  N   UNL     1       3.129   7.120   3.487  0.00  0.00    +0.000 NA
ATOM     29  N   UNL     1       2.910   8.468   3.322  0.00  0.00    +0.000 NA
ATOM     30  N   UNL     1       2.032   8.694   2.352  0.00  0.00    +0.000 NA
ATOM     31  N   UNL     1       1.703   7.475   1.889  0.00  0.00    +0.000 N 
ATOM     32  C   UNL     1       0.723   7.322   0.853  0.00  0.00    +0.000 C 
ENDBRANCH  26  27
ENDBRANCH  25  26
ENDBRANCH   4  25
TORSDOF 11
