REMARK  Name = Cefoxitin
REMARK  10 active torsions:
REMARK  status: ('A' for Active; 'I' for Inactive)
REMARK    1  A    between atoms: C_5  and  C_6
REMARK    2  A    between atoms: C_6  and  O_7
REMARK    3  A    between atoms: O_7  and  C_8
REMARK    4  A    between atoms: C_11  and  C_27
REMARK    5  A    between atoms: C_15  and  N_16
REMARK    6  A    between atoms: C_15  and  O_25
REMARK    7  A    between atoms: C_17  and  C_19
REMARK    8  A    between atoms: C_19  and  C_20
REMARK    9  A    between atoms: O_25  and  C_26
REMARK   10  A    between atoms: C_27  and  O_28
REMARK                            x       y       z     vdW  Elec       q    Type
REMARK                         _______ _______ _______ _____ _____    ______ ____
ROOT
ATOM      1  C   UNL     1       2.021   0.074   0.010  0.00  0.00    +0.000 C 
ATOM      2  S   UNL     1       2.227   0.408   1.767  0.00  0.00    +0.000 S 
ATOM      3  C   UNL     1       1.907   2.178   1.643  0.00  0.00    +0.000 C 
ATOM      4  C   UNL     1       2.615   2.898   0.516  0.00  0.00    +0.000 C 
ATOM      5  C   UNL     1       3.090   2.281  -0.604  0.00  0.00    +0.000 C 
ATOM      6  N   UNL     1       2.885   0.932  -0.796  0.00  0.00    +0.000 N 
ATOM      7  C   UNL     1       3.680  -0.057  -1.295  0.00  0.00    +0.000 C 
ATOM      8  O   UNL     1       4.659   0.051  -1.989  0.00  0.00    +0.000 OA
ATOM      9  C   UNL     1       2.732  -1.202  -0.654  0.00  0.00    +0.000 C 
ENDROOT
BRANCH   9  10
ATOM     10  N   UNL     1       3.368  -2.246   0.204  0.00  0.00    +0.000 N 
ATOM     11  C   UNL     1       4.342  -1.997   1.115  0.00  0.00    +0.000 C 
ATOM     12  O   UNL     1       4.852  -0.884   1.144  0.00  0.00    +0.000 OA
ATOM     13  H   UNL     1       3.362  -3.196  -0.145  0.00  0.00    +0.000 HD
BRANCH  11  14
ATOM     14  C   UNL     1       4.709  -3.193   2.009  0.00  0.00    +0.000 C 
BRANCH  14  15
ATOM     15  C   UNL     1       5.487  -2.717   3.205  0.00  0.00    +0.000 A 
ATOM     16  C   UNL     1       5.574  -1.432   3.706  0.00  0.00    +0.000 A 
ATOM     17  C   UNL     1       6.460  -1.302   4.793  0.00  0.00    +0.000 A 
ATOM     18  C   UNL     1       6.972  -2.519   5.168  0.00  0.00    +0.000 A 
ATOM     19  S   UNL     1       6.420  -3.794   4.159  0.00  0.00    +0.000 S 
ENDBRANCH  14  15
ENDBRANCH  11  14
ENDBRANCH   9  10
BRANCH   9  20
ATOM     20  O   UNL     1       1.911  -1.885  -1.650  0.00  0.00    +0.000 OA
ATOM     21  C   UNL     1       1.000  -2.837  -1.102  0.00  0.00    +0.000 C 
ENDBRANCH   9  20
BRANCH   5  22
ATOM     22  C   UNL     1       3.810   3.129  -1.656  0.00  0.00    +0.000 C 
ATOM     23  O   UNL     1       4.010   4.332  -1.538  0.00  0.00    +0.000 OA
BRANCH  22  24
ATOM     24  O   UNL     1       4.117   2.525  -2.819  0.00  0.00    +0.000 OA
ATOM     25  H   UNL     1       4.165   1.548  -2.797  0.00  0.00    +0.000 HD
ENDBRANCH  22  24
ENDBRANCH   5  22
BRANCH   4  26
ATOM     26  C   UNL     1       2.784   4.406   0.742  0.00  0.00    +0.000 C 
BRANCH  26  27
ATOM     27  O   UNL     1       2.239   4.848   1.996  0.00  0.00    +0.000 OA
BRANCH  27  28
ATOM     28  C   UNL     1       2.313   6.151   2.378  0.00  0.00    +0.000 C 
ATOM     29  N   UNL     1       2.874   7.039   1.513  0.00  0.00    +0.000 N 
ATOM     30  O   UNL     1       1.880   6.528   3.460  0.00  0.00    +0.000 OA
ATOM     31  H   UNL     1       3.266   6.819   0.611  0.00  0.00    +0.000 HD
ATOM     32  H   UNL     1       2.910   8.003   1.817  0.00  0.00    +0.000 HD
ENDBRANCH  27  28
ENDBRANCH  26  27
ENDBRANCH   4  26
TORSDOF 9
