REMARK  Name = Cefotaxime
REMARK  11 active torsions:
REMARK  status: ('A' for Active; 'I' for Inactive)
REMARK    1  A    between atoms: C_5  and  C_6
REMARK    2  A    between atoms: C_6  and  O_7
REMARK    3  A    between atoms: O_7  and  C_8
REMARK    4  A    between atoms: C_8  and  C_9
REMARK    5  A    between atoms: CA_11  and  C_29
REMARK    6  A    between atoms: CA_15  and  N_16
REMARK    7  A    between atoms: C_17  and  C_19
REMARK    8  A    between atoms: C_19  and  C_23
REMARK    9  A    between atoms: N_20  and  O_21
REMARK   10  A    between atoms: O_21  and  C_22
REMARK   11  A    between atoms: C_29  and  O_30
REMARK                            x       y       z     vdW  Elec       q    Type
REMARK                         _______ _______ _______ _____ _____    ______ ____
ROOT
ATOM      1  C   UNL     1       2.070   0.082  -0.013  0.00  0.00    +0.000 C 
ATOM      2  S   UNL     1       2.524   0.385   1.714  0.00  0.00    +0.000 S 
ATOM      3  C   UNL     1       2.013   2.135   1.639  0.00  0.00    +0.000 C 
ATOM      4  C   UNL     1       2.674   2.895   0.507  0.00  0.00    +0.000 C 
ATOM      5  CA  UNL     1       3.124   2.294  -0.633  0.00  0.00    +0.000 C 
ATOM      6  N   UNL     1       2.890   0.952  -0.861  0.00  0.00    +0.000 N 
ATOM      7  C   UNL     1       3.714  -0.043  -1.293  0.00  0.00    +0.000 C 
ATOM      8  O   UNL     1       4.747   0.030  -1.910  0.00  0.00    +0.000 OA
ATOM      9  CA  UNL     1       2.738  -1.129  -0.739  0.00  0.00    +0.000 C 
ENDROOT
BRANCH   9  10
ATOM     10  N   UNL     1       3.253  -2.262   0.068  0.00  0.00    +0.000 N 
ATOM     11  C   UNL     1       2.577  -3.478   0.134  0.00  0.00    +0.000 C 
ATOM     12  O   UNL     1       1.467  -3.610  -0.369  0.00  0.00    +0.000 OA
ATOM     13  H   UNL     1       4.157  -2.225   0.533  0.00  0.00    +0.000 HD
BRANCH  11  14
ATOM     14  C   UNL     1       3.235  -4.655   0.906  0.00  0.00    +0.000 C 
ATOM     15  N   UNL     1       4.399  -4.588   1.516  0.00  0.00    +0.000 NA
BRANCH  14  16
ATOM     16  C   UNL     1       2.503  -5.936   1.037  0.00  0.00    +0.000 A 
ATOM     17  C   UNL     1       2.389  -6.621   2.234  0.00  0.00    +0.000 A 
ATOM     18  S   UNL     1       1.458  -8.043   2.040  0.00  0.00    +0.000 S 
ATOM     19  C   UNL     1       1.264  -7.683   0.372  0.00  0.00    +0.000 A 
ATOM     20  N   UNL     1       0.566  -8.511  -0.418  0.00  0.00    +0.000 N 
ATOM     21  N   UNL     1       1.844  -6.573  -0.028  0.00  0.00    +0.000 NA
ATOM     22  H   UNL     1       0.118  -9.345  -0.059  0.00  0.00    +0.000 HD
ATOM     23  H   UNL     1       0.424  -8.295  -1.396  0.00  0.00    +0.000 HD
ENDBRANCH  14  16
BRANCH  15  24
ATOM     24  O   UNL     1       5.027  -3.346   1.361  0.00  0.00    +0.000 OA
ATOM     25  C   UNL     1       6.292  -3.307   2.006  0.00  0.00    +0.000 C 
ENDBRANCH  15  24
ENDBRANCH  11  14
ENDBRANCH   9  10
BRANCH   5  26
ATOM     26  C   UNL     1       3.847   3.144  -1.674  0.00  0.00    +0.000 C 
ATOM     27  OXT UNL     1       4.057   4.343  -1.543  0.00  0.00    +0.000 OA
BRANCH  26  28
ATOM     28  O   UNL     1       4.176   2.541  -2.830  0.00  0.00    +0.000 OA
ATOM     29  H   UNL     1       4.192   1.564  -2.823  0.00  0.00    +0.000 HD
ENDBRANCH  26  28
ENDBRANCH   5  26
BRANCH   4  30
ATOM     30  C   UNL     1       2.829   4.401   0.741  0.00  0.00    +0.000 C 
BRANCH  30  31
ATOM     31  O   UNL     1       2.280   4.839   1.994  0.00  0.00    +0.000 OA
BRANCH  31  32
ATOM     32  C   UNL     1       2.353   6.138   2.382  0.00  0.00    +0.000 C 
ATOM     33  C   UNL     1       2.963   7.162   1.460  0.00  0.00    +0.000 C 
ATOM     34  O   UNL     1       1.909   6.477   3.477  0.00  0.00    +0.000 OA
ENDBRANCH  31  32
ENDBRANCH  30  31
ENDBRANCH   4  30
TORSDOF 9
