REMARK  Name = Cefotetan
REMARK  13 active torsions:
REMARK  status: ('A' for Active; 'I' for Inactive)
REMARK    1  A    between atoms: C_5  and  C_6
REMARK    2  A    between atoms: C_6  and  S_7
REMARK    3  A    between atoms: S_7  and  C_8
REMARK    4  A    between atoms: N_12  and  C_13
REMARK    5  A    between atoms: C_14  and  C_35
REMARK    6  A    between atoms: C_18  and  N_19
REMARK    7  A    between atoms: C_18  and  O_33
REMARK    8  A    between atoms: C_20  and  C_22
REMARK    9  A    between atoms: C_26  and  C_27
REMARK   10  A    between atoms: C_26  and  C_30
REMARK   11  A    between atoms: C_30  and  O_31
REMARK   12  A    between atoms: O_33  and  C_34
REMARK   13  A    between atoms: C_35  and  O_36
REMARK                            x       y       z     vdW  Elec       q    Type
REMARK                         _______ _______ _______ _____ _____    ______ ____
ROOT
ATOM      1  C   UNL     1       2.022   0.057   0.103  0.00  0.00    +0.000 C 
ATOM      2  S   UNL     1       2.184   0.343   1.858  0.00  0.00    +0.000 S 
ATOM      3  C   UNL     1       1.908   2.099   1.755  0.00  0.00    +0.000 C 
ATOM      4  C   UNL     1       2.623   2.867   0.659  0.00  0.00    +0.000 C 
ATOM      5  C   UNL     1       3.097   2.270  -0.475  0.00  0.00    +0.000 C 
ATOM      6  N   UNL     1       2.886   0.927  -0.687  0.00  0.00    +0.000 N 
ATOM      7  C   UNL     1       3.684  -0.056  -1.185  0.00  0.00    +0.000 C 
ATOM      8  O   UNL     1       4.676   0.039  -1.864  0.00  0.00    +0.000 OA
ATOM      9  C   UNL     1       2.763  -1.190  -0.536  0.00  0.00    +0.000 C 
ENDROOT
BRANCH   9  10
ATOM     10  N   UNL     1       3.460  -2.177   0.314  0.00  0.00    +0.000 N 
ATOM     11  C   UNL     1       4.349  -1.965   1.345  0.00  0.00    +0.000 C 
ATOM     12  O   UNL     1       4.802  -0.845   1.580  0.00  0.00    +0.000 OA
ATOM     13  H   UNL     1       3.382  -3.146   0.027  0.00  0.00    +0.000 HD
BRANCH  11  14
ATOM     14  C   UNL     1       4.768  -3.254   2.131  0.00  0.00    +0.000 C 
ATOM     15  S   UNL     1       3.458  -3.885   3.229  0.00  0.00    +0.000 S 
ATOM     16  C   UNL     1       4.269  -5.351   2.704  0.00  0.00    +0.000 C 
ATOM     17  S   UNL     1       4.683  -4.771   1.102  0.00  0.00    +0.000 S 
ATOM     18  C   UNL     1       4.401  -6.583   3.262  0.00  0.00    +0.000 C 
BRANCH  18  19
ATOM     19  C   UNL     1       3.863  -6.804   4.653  0.00  0.00    +0.000 C 
ATOM     20  N   UNL     1       3.989  -8.052   5.185  0.00  0.00    +0.000 N 
ATOM     21  O   UNL     1       3.327  -5.941   5.339  0.00  0.00    +0.000 OA
ATOM     22  H   UNL     1       4.426  -8.827   4.687  0.00  0.00    +0.000 HD
ATOM     23  H   UNL     1       3.639  -8.217   6.120  0.00  0.00    +0.000 HD
ENDBRANCH  18  19
BRANCH  18  24
ATOM     24  C   UNL     1       5.035  -7.708   2.515  0.00  0.00    +0.000 C 
ATOM     25  O   UNL     1       5.142  -8.828   3.004  0.00  0.00    +0.000 OA
BRANCH  24  26
ATOM     26  O   UNL     1       5.499  -7.500   1.266  0.00  0.00    +0.000 OA
ATOM     27  H   UNL     1       5.385  -6.605   0.892  0.00  0.00    +0.000 HD
ENDBRANCH  24  26
ENDBRANCH  18  24
ENDBRANCH  11  14
ENDBRANCH   9  10
BRANCH   9  28
ATOM     28  O   UNL     1       1.957  -1.911  -1.521  0.00  0.00    +0.000 OA
ATOM     29  C   UNL     1       1.039  -2.858  -0.973  0.00  0.00    +0.000 C 
ENDBRANCH   9  28
BRANCH   5  30
ATOM     30  C   UNL     1       3.813   3.115  -1.529  0.00  0.00    +0.000 C 
ATOM     31  O   UNL     1       4.000   4.320  -1.413  0.00  0.00    +0.000 OA
BRANCH  30  32
ATOM     32  O   UNL     1       4.122   2.511  -2.694  0.00  0.00    +0.000 OA
ATOM     33  H   UNL     1       4.176   1.535  -2.683  0.00  0.00    +0.000 HD
ENDBRANCH  30  32
ENDBRANCH   5  30
BRANCH   4  34
ATOM     34  C   UNL     1       2.780   4.382   0.926  0.00  0.00    +0.000 C 
BRANCH  34  35
ATOM     35  S   UNL     1       2.059   4.939   2.508  0.00  0.00    +0.000 S 
BRANCH  35  36
ATOM     36  C   UNL     1       2.390   6.619   2.591  0.00  0.00    +0.000 A 
ATOM     37  N   UNL     1       3.133   7.215   3.494  0.00  0.00    +0.000 NA
ATOM     38  N   UNL     1       2.913   8.564   3.329  0.00  0.00    +0.000 NA
ATOM     39  N   UNL     1       2.035   8.789   2.360  0.00  0.00    +0.000 NA
ATOM     40  N   UNL     1       1.705   7.571   1.897  0.00  0.00    +0.000 N 
ATOM     41  C   UNL     1       0.725   7.417   0.861  0.00  0.00    +0.000 C 
ENDBRANCH  35  36
ENDBRANCH  34  35
ENDBRANCH   4  34
TORSDOF 11
