REMARK  Name = Cefonicid
REMARK  12 active torsions:
REMARK  status: ('A' for Active; 'I' for Inactive)
REMARK    1  A    between atoms: C_5  and  C_6
REMARK    2  A    between atoms: C_6  and  S_7
REMARK    3  A    between atoms: S_7  and  C_8
REMARK    4  A    between atoms: N_12  and  C_13
REMARK    5  A    between atoms: C_13  and  S_14
REMARK    6  A    between atoms: S_14  and  O_15
REMARK    7  A    between atoms: CA_18  and  C_34
REMARK    8  A    between atoms: CA_22  and  N_23
REMARK    9  A    between atoms: C_24  and  C_26
REMARK   10  A    between atoms: C_26  and  O_27
REMARK   11  A    between atoms: C_26  and  C_28
REMARK   12  A    between atoms: C_34  and  O_35
REMARK                            x       y       z     vdW  Elec       q    Type
REMARK                         _______ _______ _______ _____ _____    ______ ____
ROOT
ATOM      1  C   UNL     1       1.877  -3.609   5.721  0.00  0.00    +0.000 C 
ATOM      2  S   UNL     1       0.235  -3.440   4.951  0.00  0.00    +0.000 S 
ATOM      3  C   UNL     1      -0.502  -2.857   6.503  0.00  0.00    +0.000 C 
ATOM      4  C   UNL     1      -0.260  -3.764   7.701  0.00  0.00    +0.000 C 
ATOM      5  CA  UNL     1       0.779  -4.660   7.724  0.00  0.00    +0.000 C 
ATOM      6  N   UNL     1       1.763  -4.637   6.748  0.00  0.00    +0.000 N 
ATOM      7  C   UNL     1       2.361  -5.608   6.011  0.00  0.00    +0.000 C 
ATOM      8  O   UNL     1       2.443  -6.804   6.231  0.00  0.00    +0.000 OA
ATOM      9  CA  UNL     1       2.877  -4.539   4.976  0.00  0.00    +0.000 C 
ENDROOT
BRANCH   9  10
ATOM     10  N   UNL     1       2.598  -4.651   3.522  0.00  0.00    +0.000 N 
ATOM     11  C   UNL     1       3.515  -4.327   2.533  0.00  0.00    +0.000 C 
ATOM     12  O   UNL     1       4.481  -3.612   2.805  0.00  0.00    +0.000 OA
ATOM     13  H   UNL     1       1.651  -4.900   3.245  0.00  0.00    +0.000 HD
BRANCH  11  14
ATOM     14  C   UNL     1       3.255  -4.861   1.070  0.00  0.00    +0.000 C 
BRANCH  14  15
ATOM     15  C   UNL     1       2.351  -6.088   0.949  0.00  0.00    +0.000 A 
ATOM     16  C   UNL     1       1.849  -6.548  -0.269  0.00  0.00    +0.000 A 
ATOM     17  C   UNL     1       0.782  -7.460  -0.276  0.00  0.00    +0.000 A 
ATOM     18  C   UNL     1       0.210  -7.902   0.920  0.00  0.00    +0.000 A 
ATOM     19  C   UNL     1       0.776  -7.530   2.118  0.00  0.00    +0.000 A 
ATOM     20  C   UNL     1       1.946  -6.798   2.082  0.00  0.00    +0.000 A 
ENDBRANCH  14  15
BRANCH  14  21
ATOM     21  O   UNL     1       2.708  -3.790   0.290  0.00  0.00    +0.000 OA
ATOM     22  H   UNL     1       1.861  -3.533   0.693  0.00  0.00    +0.000 HD
ENDBRANCH  14  21
ENDBRANCH  11  14
ENDBRANCH   9  10
BRANCH   5  23
ATOM     23  C   UNL     1       0.874  -5.652   8.878  0.00  0.00    +0.000 C 
ATOM     24  OXT UNL     1       0.050  -5.726   9.779  0.00  0.00    +0.000 OA
BRANCH  23  25
ATOM     25  O   UNL     1       1.982  -6.414   8.934  0.00  0.00    +0.000 OA
ATOM     26  H   UNL     1       2.500  -6.501   8.112  0.00  0.00    +0.000 HD
ENDBRANCH  23  25
ENDBRANCH   5  23
BRANCH   4  27
ATOM     27  C   UNL     1      -1.270  -3.647   8.886  0.00  0.00    +0.000 C 
BRANCH  27  28
ATOM     28  S   UNL     1      -2.349  -2.160   8.901  0.00  0.00    +0.000 S 
BRANCH  28  29
ATOM     29  C   UNL     1      -3.658  -2.499  10.014  0.00  0.00    +0.000 A 
ATOM     30  N   UNL     1      -3.656  -2.014  11.238  0.00  0.00    +0.000 NA
ATOM     31  N   UNL     1      -4.917  -2.188  11.740  0.00  0.00    +0.000 NA
ATOM     32  N   UNL     1      -5.708  -2.747  10.841  0.00  0.00    +0.000 NA
ATOM     33  N   UNL     1      -4.941  -2.938   9.738  0.00  0.00    +0.000 N 
BRANCH  33  34
ATOM     34  C   UNL     1      -5.630  -3.494   8.592  0.00  0.00    +0.000 C 
BRANCH  34  35
ATOM     35  S   UNL     1      -4.728  -3.741   7.093  0.00  0.00    +0.000 S 
ATOM     36  O   UNL     1      -3.526  -4.483   7.390  0.00  0.00    +0.000 OA
ATOM     37  O   UNL     1      -5.611  -4.180   6.041  0.00  0.00    +0.000 OA
BRANCH  35  38
ATOM     38  O   UNL     1      -4.342  -2.196   6.777  0.00  0.00    +0.000 OA
ATOM     39  H   UNL     1      -3.671  -1.824   7.395  0.00  0.00    +0.000 HD
ENDBRANCH  35  38
ENDBRANCH  34  35
ENDBRANCH  33  34
ENDBRANCH  28  29
ENDBRANCH  27  28
ENDBRANCH   4  27
TORSDOF 12
