REMARK  Name = Cefoperazone
REMARK  13 active torsions:
REMARK  status: ('A' for Active; 'I' for Inactive)
REMARK    1  A    between atoms: C_5  and  C_6
REMARK    2  A    between atoms: C_6  and  S_7
REMARK    3  A    between atoms: S_7  and  C_8
REMARK    4  A    between atoms: N_12  and  C_13
REMARK    5  A    between atoms: CA_14  and  C_44
REMARK    6  A    between atoms: CA_18  and  N_20
REMARK    7  A    between atoms: C_21  and  CA_23
REMARK    8  A    between atoms: CA_23  and  N_24
REMARK    9  A    between atoms: CA_23  and  C_37
REMARK   10  A    between atoms: N_30  and  C_31
REMARK   11  A    between atoms: C_31  and  C_32
REMARK   12  A    between atoms: C_40  and  O_41
REMARK   13  A    between atoms: C_44  and  O_45
REMARK                            x       y       z     vdW  Elec       q    Type
REMARK                         _______ _______ _______ _____ _____    ______ ____
ROOT
ATOM      1  N   UNL     1       2.573  -6.705  -4.268  0.00  0.00    +0.000 N 
ATOM      2  C   UNL     1       1.887  -7.284  -3.199  0.00  0.00    +0.000 C 
ATOM      3  O   UNL     1       0.661  -7.143  -3.122  0.00  0.00    +0.000 OA
ATOM      4  H   UNL     1       3.588  -6.631  -4.239  0.00  0.00    +0.000 HD
ENDROOT
BRANCH   1  13
ATOM      5  C   UNL     1       2.417  -5.057  -6.370  0.00  0.00    +0.000 C 
ATOM      6  S   UNL     1       4.110  -5.449  -6.809  0.00  0.00    +0.000 S 
ATOM      7  C   UNL     1       3.934  -4.714  -8.459  0.00  0.00    +0.000 C 
ATOM      8  C   UNL     1       2.770  -5.260  -9.273  0.00  0.00    +0.000 C 
ATOM      9  CA  UNL     1       1.654  -5.778  -8.674  0.00  0.00    +0.000 C 
ATOM     10  N   UNL     1       1.506  -5.720  -7.302  0.00  0.00    +0.000 N 
ATOM     11  C   UNL     1       1.084  -6.665  -6.416  0.00  0.00    +0.000 C 
ATOM     12  O   UNL     1       0.437  -7.657  -6.616  0.00  0.00    +0.000 OA
ATOM     13  CA  UNL     1       1.761  -5.892  -5.237  0.00  0.00    +0.000 C 
BRANCH   9  14
ATOM     14  C   UNL     1       0.543  -6.371  -9.536  0.00  0.00    +0.000 C 
ATOM     15  OXT UNL     1       0.587  -6.404 -10.758  0.00  0.00    +0.000 OA
BRANCH  14  16
ATOM     16  O   UNL     1      -0.583  -6.755  -8.902  0.00  0.00    +0.000 OA
ATOM     17  H   UNL     1      -0.505  -6.957  -7.947  0.00  0.00    +0.000 HD
ENDBRANCH  14  16
ENDBRANCH   9  14
BRANCH   8  18
ATOM     18  C   UNL     1       2.934  -5.204 -10.812  0.00  0.00    +0.000 C 
BRANCH  18  19
ATOM     19  S   UNL     1       4.478  -4.415 -11.378  0.00  0.00    +0.000 S 
BRANCH  19  20
ATOM     20  C   UNL     1       4.444  -4.527 -13.094  0.00  0.00    +0.000 A 
ATOM     21  N   UNL     1       5.298  -5.189 -13.841  0.00  0.00    +0.000 NA
ATOM     22  N   UNL     1       5.044  -4.799 -15.137  0.00  0.00    +0.000 NA
ATOM     23  N   UNL     1       4.072  -3.897 -15.182  0.00  0.00    +0.000 NA
ATOM     24  N   UNL     1       3.696  -3.725 -13.903  0.00  0.00    +0.000 N 
ATOM     25  C   UNL     1       2.682  -2.771 -13.558  0.00  0.00    +0.000 C 
ENDBRANCH  19  20
ENDBRANCH  18  19
ENDBRANCH   8  18
ENDBRANCH   1  13
BRANCH   2  26
ATOM     26  CA  UNL     1       2.727  -7.924  -2.028  0.00  0.00    +0.000 C 
BRANCH  26  27
ATOM     27  N   UNL     1       1.780  -8.587  -1.099  0.00  0.00    +0.000 N 
ATOM     28  C   UNL     1       1.048  -9.673  -1.527  0.00  0.00    +0.000 C 
ATOM     29  O   UNL     1       1.123 -10.041  -2.698  0.00  0.00    +0.000 OA
ATOM     30  N   UNL     1       0.180 -10.241  -0.621  0.00  0.00    +0.000 N 
ATOM     31  C   UNL     1      -0.594  -9.497   0.367  0.00  0.00    +0.000 C 
ATOM     32  C   UNL     1      -2.055  -9.975   0.390  0.00  0.00    +0.000 C 
ATOM     33  N   UNL     1      -2.124 -11.410   0.652  0.00  0.00    +0.000 N 
ATOM     34  C   UNL     1      -1.128 -12.243   0.119  0.00  0.00    +0.000 C 
ATOM     35  O   UNL     1      -1.056 -13.454   0.297  0.00  0.00    +0.000 OA
ATOM     36  C   UNL     1      -0.012 -11.613  -0.725  0.00  0.00    +0.000 C 
ATOM     37  O   UNL     1       0.695 -12.382  -1.370  0.00  0.00    +0.000 OA
ATOM     38  H   UNL     1       1.854  -8.387  -0.115  0.00  0.00    +0.000 HD
BRANCH  33  39
ATOM     39  C   UNL     1      -3.308 -11.947   1.354  0.00  0.00    +0.000 C 
ATOM     40  C   UNL     1      -3.339 -13.458   1.552  0.00  0.00    +0.000 C 
ENDBRANCH  33  39
ENDBRANCH  26  27
BRANCH  26  41
ATOM     41  C   UNL     1       3.534  -6.852  -1.278  0.00  0.00    +0.000 A 
ATOM     42  C   UNL     1       4.546  -7.176  -0.352  0.00  0.00    +0.000 A 
ATOM     43  C   UNL     1       5.237  -6.160   0.341  0.00  0.00    +0.000 A 
ATOM     44  C   UNL     1       4.930  -4.824   0.098  0.00  0.00    +0.000 A 
ATOM     45  C   UNL     1       3.944  -4.487  -0.809  0.00  0.00    +0.000 A 
ATOM     46  C   UNL     1       3.249  -5.489  -1.474  0.00  0.00    +0.000 A 
BRANCH  44  47
ATOM     47  O   UNL     1       5.552  -3.786   0.724  0.00  0.00    +0.000 OA
ATOM     48  H   UNL     1       6.230  -4.124   1.329  0.00  0.00    +0.000 HD
ENDBRANCH  44  47
ENDBRANCH  26  41
ENDBRANCH   2  26
TORSDOF 11
