REMARK  Name = Cefotiam
REMARK  13 active torsions:
REMARK  status: ('A' for Active; 'I' for Inactive)
REMARK    1  A    between atoms: C_5  and  C_6
REMARK    2  A    between atoms: C_6  and  S_7
REMARK    3  A    between atoms: S_7  and  C_8
REMARK    4  A    between atoms: N_12  and  C_13
REMARK    5  A    between atoms: C_13  and  C_14
REMARK    6  A    between atoms: C_14  and  N_15
REMARK    7  A    between atoms: N_15  and  C_16
REMARK    8  A    between atoms: N_15  and  C_17
REMARK    9  A    between atoms: CA_18  and  C_33
REMARK   10  A    between atoms: CA_22  and  N_23
REMARK   11  A    between atoms: C_24  and  C_26
REMARK   12  A    between atoms: C_26  and  C_27
REMARK   13  A    between atoms: C_33  and  O_34
REMARK                            x       y       z     vdW  Elec       q    Type
REMARK                         _______ _______ _______ _____ _____    ______ ____
ROOT
ATOM      1  C   UNL     1       2.008  -0.038   0.085  0.00  0.00    +0.000 C 
ATOM      2  S   UNL     1       2.461   0.278   1.807  0.00  0.00    +0.000 S 
ATOM      3  C   UNL     1       1.932   2.021   1.724  0.00  0.00    +0.000 C 
ATOM      4  C   UNL     1       2.567   2.819   0.596  0.00  0.00    +0.000 C 
ATOM      5  CA  UNL     1       3.036   2.199  -0.536  0.00  0.00    +0.000 C 
ATOM      6  N   UNL     1       2.829   0.843  -0.751  0.00  0.00    +0.000 N 
ATOM      7  C   UNL     1       3.655  -0.150  -1.194  0.00  0.00    +0.000 C 
ATOM      8  O   UNL     1       4.680  -0.078  -1.820  0.00  0.00    +0.000 OA
ATOM      9  CA  UNL     1       2.697  -1.246  -0.632  0.00  0.00    +0.000 C 
ENDROOT
BRANCH   9  10
ATOM     10  N   UNL     1       3.218  -2.405   0.188  0.00  0.00    +0.000 N 
ATOM     11  C   UNL     1       2.473  -3.585   0.219  0.00  0.00    +0.000 C 
ATOM     12  O   UNL     1       1.358  -3.612  -0.301  0.00  0.00    +0.000 OA
ATOM     13  H   UNL     1       4.132  -2.369   0.629  0.00  0.00    +0.000 HD
BRANCH  11  14
ATOM     14  C   UNL     1       3.098  -4.787   0.931  0.00  0.00    +0.000 C 
BRANCH  14  15
ATOM     15  C   UNL     1       2.149  -5.960   1.015  0.00  0.00    +0.000 A 
ATOM     16  C   UNL     1       1.515  -6.363   2.175  0.00  0.00    +0.000 A 
ATOM     17  S   UNL     1       0.433  -7.639   1.864  0.00  0.00    +0.000 S 
ATOM     18  C   UNL     1       0.901  -7.625   0.210  0.00  0.00    +0.000 A 
ATOM     19  N   UNL     1       0.324  -8.503  -0.621  0.00  0.00    +0.000 N 
ATOM     20  N   UNL     1       1.823  -6.738  -0.104  0.00  0.00    +0.000 NA
ATOM     21  H   UNL     1      -0.410  -9.113  -0.280  0.00  0.00    +0.000 HD
ATOM     22  H   UNL     1       0.512  -8.511  -1.613  0.00  0.00    +0.000 HD
ENDBRANCH  14  15
ENDBRANCH  11  14
ENDBRANCH   9  10
BRANCH   5  23
ATOM     23  C   UNL     1       3.770   3.037  -1.578  0.00  0.00    +0.000 C 
ATOM     24  OXT UNL     1       4.008   4.229  -1.439  0.00  0.00    +0.000 OA
BRANCH  23  25
ATOM     25  O   UNL     1       4.096   2.430  -2.735  0.00  0.00    +0.000 OA
ATOM     26  H   UNL     1       4.104   1.454  -2.738  0.00  0.00    +0.000 HD
ENDBRANCH  23  25
ENDBRANCH   5  23
BRANCH   4  27
ATOM     27  C   UNL     1       2.675   4.367   0.818  0.00  0.00    +0.000 C 
BRANCH  27  28
ATOM     28  S   UNL     1       1.711   5.062   2.212  0.00  0.00    +0.000 S 
BRANCH  28  29
ATOM     29  C   UNL     1       2.242   6.719   2.413  0.00  0.00    +0.000 A 
ATOM     30  N   UNL     1       1.604   7.744   1.886  0.00  0.00    +0.000 NA
ATOM     31  N   UNL     1       2.110   8.875   2.479  0.00  0.00    +0.000 NA
ATOM     32  N   UNL     1       3.036   8.568   3.371  0.00  0.00    +0.000 NA
ATOM     33  N   UNL     1       3.127   7.220   3.347  0.00  0.00    +0.000 N 
BRANCH  33  34
ATOM     34  C   UNL     1       4.039   6.617   4.295  0.00  0.00    +0.000 C 
BRANCH  34  35
ATOM     35  C   UNL     1       4.026   5.099   4.271  0.00  0.00    +0.000 C 
BRANCH  35  36
ATOM     36  N   UNL     1       4.944   4.416   5.183  0.00  0.00    +0.000 NA
ATOM     37  C   UNL     1       4.615   4.746   6.570  0.00  0.00    +0.000 C 
ATOM     38  C   UNL     1       4.795   2.968   4.971  0.00  0.00    +0.000 C 
ENDBRANCH  35  36
ENDBRANCH  34  35
ENDBRANCH  33  34
ENDBRANCH  28  29
ENDBRANCH  27  28
ENDBRANCH   4  27
TORSDOF 11
