REMARK  Name = Cefpodoxime
REMARK  10 active torsions:
REMARK  status: ('A' for Active; 'I' for Inactive)
REMARK    1  A    between atoms: C_5  and  C_6
REMARK    2  A    between atoms: C_6  and  O_7
REMARK    3  A    between atoms: O_7  and  C_8
REMARK    4  A    between atoms: CA_9  and  C_27
REMARK    5  A    between atoms: CA_13  and  N_14
REMARK    6  A    between atoms: C_15  and  C_17
REMARK    7  A    between atoms: C_17  and  C_21
REMARK    8  A    between atoms: N_18  and  O_19
REMARK    9  A    between atoms: O_19  and  C_20
REMARK   10  A    between atoms: C_27  and  O_28
REMARK                            x       y       z     vdW  Elec       q    Type
REMARK                         _______ _______ _______ _____ _____    ______ ____
ROOT
ATOM      1  C   UNL     1       2.017  -0.084   0.018  0.00  0.00    +0.000 C 
ATOM      2  S   UNL     1       2.468   0.214   1.746  0.00  0.00    +0.000 S 
ATOM      3  C   UNL     1       1.962   1.964   1.670  0.00  0.00    +0.000 C 
ATOM      4  C   UNL     1       2.621   2.720   0.536  0.00  0.00    +0.000 C 
ATOM      5  CA  UNL     1       3.073   2.124  -0.605  0.00  0.00    +0.000 C 
ATOM      6  N   UNL     1       2.837   0.784  -0.833  0.00  0.00    +0.000 N 
ATOM      7  C   UNL     1       3.663  -0.211  -1.260  0.00  0.00    +0.000 C 
ATOM      8  O   UNL     1       4.695  -0.140  -1.877  0.00  0.00    +0.000 OA
ATOM      9  CA  UNL     1       2.684  -1.295  -0.707  0.00  0.00    +0.000 C 
ENDROOT
BRANCH   9  10
ATOM     10  N   UNL     1       3.199  -2.427   0.101  0.00  0.00    +0.000 N 
ATOM     11  C   UNL     1       2.523  -3.642   0.168  0.00  0.00    +0.000 C 
ATOM     12  O   UNL     1       1.413  -3.775  -0.334  0.00  0.00    +0.000 OA
ATOM     13  H   UNL     1       4.102  -2.387   0.568  0.00  0.00    +0.000 HD
BRANCH  11  14
ATOM     14  C   UNL     1       3.182  -4.819   0.940  0.00  0.00    +0.000 C 
ATOM     15  N   UNL     1       4.345  -4.751   1.551  0.00  0.00    +0.000 NA
BRANCH  14  16
ATOM     16  C   UNL     1       2.449  -6.100   1.071  0.00  0.00    +0.000 A 
ATOM     17  C   UNL     1       2.335  -6.784   2.269  0.00  0.00    +0.000 A 
ATOM     18  S   UNL     1       1.404  -8.206   2.075  0.00  0.00    +0.000 S 
ATOM     19  C   UNL     1       1.210  -7.846   0.407  0.00  0.00    +0.000 A 
ATOM     20  N   UNL     1       0.512  -8.674  -0.383  0.00  0.00    +0.000 N 
ATOM     21  N   UNL     1       1.790  -6.736   0.006  0.00  0.00    +0.000 NA
ATOM     22  H   UNL     1       0.064  -9.509  -0.025  0.00  0.00    +0.000 HD
ATOM     23  H   UNL     1       0.370  -8.458  -1.361  0.00  0.00    +0.000 HD
ENDBRANCH  14  16
BRANCH  15  24
ATOM     24  O   UNL     1       4.973  -3.509   1.395  0.00  0.00    +0.000 OA
ATOM     25  C   UNL     1       6.238  -3.470   2.040  0.00  0.00    +0.000 C 
ENDBRANCH  15  24
ENDBRANCH  11  14
ENDBRANCH   9  10
BRANCH   5  26
ATOM     26  C   UNL     1       3.795   2.978  -1.646  0.00  0.00    +0.000 C 
ATOM     27  OXT UNL     1       4.009   4.176  -1.519  0.00  0.00    +0.000 OA
BRANCH  26  28
ATOM     28  O   UNL     1       4.124   2.372  -2.802  0.00  0.00    +0.000 OA
ATOM     29  H   UNL     1       4.137   1.397  -2.789  0.00  0.00    +0.000 HD
ENDBRANCH  26  28
ENDBRANCH   5  26
BRANCH   4  30
ATOM     30  C   UNL     1       2.773   4.218   0.772  0.00  0.00    +0.000 C 
BRANCH  30  31
ATOM     31  O   UNL     1       2.225   4.637   2.022  0.00  0.00    +0.000 OA
ATOM     32  C   UNL     1       2.414   6.042   2.191  0.00  0.00    +0.000 C 
ENDBRANCH  30  31
ENDBRANCH   4  30
TORSDOF 8
