REMARK  Name = Cefprozil
REMARK  9 active torsions:
REMARK  status: ('A' for Active; 'I' for Inactive)
REMARK    1  A    between atoms: C_5  and  C_6
REMARK    2  A    between atoms: C_7  and  C_8
REMARK    3  A    between atoms: CA_9  and  C_27
REMARK    4  A    between atoms: CA_13  and  N_15
REMARK    5  A    between atoms: C_16  and  CA_18
REMARK    6  A    between atoms: CA_18  and  N_19
REMARK    7  A    between atoms: CA_18  and  C_20
REMARK    8  A    between atoms: C_23  and  O_24
REMARK    9  A    between atoms: C_27  and  O_28
REMARK                            x       y       z     vdW  Elec       q    Type
REMARK                         _______ _______ _______ _____ _____    ______ ____
ROOT
ATOM      1  C   UNL     1       1.901  -3.469   5.747  0.00  0.00    +0.000 C 
ATOM      2  S   UNL     1       0.287  -3.369   4.903  0.00  0.00    +0.000 S 
ATOM      3  C   UNL     1      -0.520  -2.764   6.430  0.00  0.00    +0.000 C 
ATOM      4  C   UNL     1      -0.326  -3.693   7.629  0.00  0.00    +0.000 C 
ATOM      5  CA  UNL     1       0.732  -4.561   7.712  0.00  0.00    +0.000 C 
ATOM      6  N   UNL     1       1.768  -4.489   6.788  0.00  0.00    +0.000 N 
ATOM      7  C   UNL     1       2.424  -5.447   6.092  0.00  0.00    +0.000 C 
ATOM      8  O   UNL     1       2.433  -6.655   6.256  0.00  0.00    +0.000 OA
ATOM      9  CA  UNL     1       3.028  -4.363   5.106  0.00  0.00    +0.000 C 
ENDROOT
BRANCH   9  10
ATOM     10  N   UNL     1       2.852  -4.677   3.685  0.00  0.00    +0.000 N 
ATOM     11  C   UNL     1       3.531  -4.228   2.571  0.00  0.00    +0.000 C 
ATOM     12  O   UNL     1       4.440  -3.408   2.744  0.00  0.00    +0.000 OA
ATOM     13  H   UNL     1       1.923  -4.994   3.629  0.00  0.00    +0.000 HD
BRANCH  11  14
ATOM     14  CA  UNL     1       3.142  -4.736   1.060  0.00  0.00    +0.000 C 
BRANCH  14  15
ATOM     15  C   UNL     1       2.222  -5.952   0.884  0.00  0.00    +0.000 A 
ATOM     16  C   UNL     1       2.011  -6.675  -0.296  0.00  0.00    +0.000 A 
ATOM     17  C   UNL     1       1.064  -7.746  -0.319  0.00  0.00    +0.000 A 
ATOM     18  C   UNL     1       0.388  -8.141   0.840  0.00  0.00    +0.000 A 
ATOM     19  C   UNL     1       0.594  -7.466   1.991  0.00  0.00    +0.000 A 
ATOM     20  C   UNL     1       1.398  -6.362   1.917  0.00  0.00    +0.000 A 
BRANCH  18  21
ATOM     21  O   UNL     1      -0.554  -9.108   0.940  0.00  0.00    +0.000 OA
ATOM     22  H   UNL     1      -0.653  -9.547   0.088  0.00  0.00    +0.000 HD
ENDBRANCH  18  21
ENDBRANCH  14  15
BRANCH  14  23
ATOM     23  N   UNL     1       2.619  -3.579   0.304  0.00  0.00    +0.000 NA
ATOM     24  H1  UNL     1       1.712  -3.315   0.675  0.00  0.00    +0.000 HD
ATOM     25  H2  UNL     1       2.474  -3.843  -0.670  0.00  0.00    +0.000 HD
ENDBRANCH  14  23
ENDBRANCH  11  14
ENDBRANCH   9  10
BRANCH   4  26
ATOM     26  C   UNL     1      -1.376  -3.561   8.658  0.00  0.00    +0.000 C 
ATOM     27  C   UNL     1      -2.441  -2.742   8.679  0.00  0.00    +0.000 C 
ATOM     28  C   UNL     1      -3.421  -2.737   9.814  0.00  0.00    +0.000 C 
ENDBRANCH   4  26
BRANCH   5  29
ATOM     29  C   UNL     1       0.849  -5.567   8.866  0.00  0.00    +0.000 C 
ATOM     30  OXT UNL     1       0.045  -5.695   9.778  0.00  0.00    +0.000 OA
BRANCH  29  31
ATOM     31  O   UNL     1       1.979  -6.300   8.912  0.00  0.00    +0.000 OA
ATOM     32  H   UNL     1       2.473  -6.397   8.079  0.00  0.00    +0.000 HD
ENDBRANCH  29  31
ENDBRANCH   5  29
TORSDOF 8
