REMARK  Name = Cefpiramide
REMARK  14 active torsions:
REMARK  status: ('A' for Active; 'I' for Inactive)
REMARK    1  A    between atoms: C_5  and  C_6
REMARK    2  A    between atoms: C_6  and  S_7
REMARK    3  A    between atoms: S_7  and  C_8
REMARK    4  A    between atoms: N_12  and  C_13
REMARK    5  A    between atoms: CA_14  and  C_42
REMARK    6  A    between atoms: CA_18  and  N_20
REMARK    7  A    between atoms: C_21  and  CA_23
REMARK    8  A    between atoms: CA_23  and  N_24
REMARK    9  A    between atoms: CA_23  and  C_35
REMARK   10  A    between atoms: C_25  and  C_27
REMARK   11  A    between atoms: C_28  and  O_29
REMARK   12  A    between atoms: C_31  and  C_32
REMARK   13  A    between atoms: C_38  and  O_39
REMARK   14  A    between atoms: C_42  and  O_43
REMARK                            x       y       z     vdW  Elec       q    Type
REMARK                         _______ _______ _______ _____ _____    ______ ____
ROOT
ATOM      1  N   UNL     1       2.705  -4.884   3.615  0.00  0.00    +0.000 N 
ATOM      2  C   UNL     1       3.448  -4.335   2.588  0.00  0.00    +0.000 C 
ATOM      3  O   UNL     1       4.383  -3.586   2.874  0.00  0.00    +0.000 OA
ATOM      4  H   UNL     1       2.429  -5.846   3.466  0.00  0.00    +0.000 HD
ENDROOT
BRANCH   1  13
ATOM      5  C   UNL     1       1.762  -3.546   5.665  0.00  0.00    +0.000 C 
ATOM      6  S   UNL     1       0.145  -3.393   4.873  0.00  0.00    +0.000 S 
ATOM      7  C   UNL     1      -0.616  -2.777   6.404  0.00  0.00    +0.000 C 
ATOM      8  C   UNL     1      -0.437  -3.705   7.598  0.00  0.00    +0.000 C 
ATOM      9  CA  UNL     1       0.619  -4.570   7.681  0.00  0.00    +0.000 C 
ATOM     10  N   UNL     1       1.637  -4.532   6.746  0.00  0.00    +0.000 N 
ATOM     11  C   UNL     1       2.263  -5.518   6.063  0.00  0.00    +0.000 C 
ATOM     12  O   UNL     1       2.299  -6.718   6.260  0.00  0.00    +0.000 OA
ATOM     13  CA  UNL     1       2.822  -4.496   5.030  0.00  0.00    +0.000 C 
BRANCH   9  14
ATOM     14  C   UNL     1       0.713  -5.535   8.858  0.00  0.00    +0.000 C 
ATOM     15  OXT UNL     1      -0.106  -5.571   9.766  0.00  0.00    +0.000 OA
BRANCH  14  16
ATOM     16  O   UNL     1       1.815  -6.307   8.929  0.00  0.00    +0.000 OA
ATOM     17  H   UNL     1       2.344  -6.408   8.116  0.00  0.00    +0.000 HD
ENDBRANCH  14  16
ENDBRANCH   9  14
BRANCH   8  18
ATOM     18  C   UNL     1      -1.517  -3.608   8.702  0.00  0.00    +0.000 C 
BRANCH  18  19
ATOM     19  S   UNL     1      -2.784  -2.331   8.408  0.00  0.00    +0.000 S 
BRANCH  19  20
ATOM     20  C   UNL     1      -3.873  -2.458   9.733  0.00  0.00    +0.000 A 
ATOM     21  N   UNL     1      -5.143  -2.785   9.659  0.00  0.00    +0.000 NA
ATOM     22  N   UNL     1      -5.672  -2.520  10.902  0.00  0.00    +0.000 NA
ATOM     23  N   UNL     1      -4.751  -2.019  11.716  0.00  0.00    +0.000 NA
ATOM     24  N   UNL     1      -3.624  -1.977  10.984  0.00  0.00    +0.000 N 
ATOM     25  C   UNL     1      -2.412  -1.442  11.533  0.00  0.00    +0.000 C 
ENDBRANCH  19  20
ENDBRANCH  18  19
ENDBRANCH   8  18
ENDBRANCH   1  13
BRANCH   2  26
ATOM     26  CA  UNL     1       3.004  -4.648   1.073  0.00  0.00    +0.000 C 
BRANCH  26  27
ATOM     27  C   UNL     1       2.034  -5.852   0.939  0.00  0.00    +0.000 A 
ATOM     28  C   UNL     1       1.034  -6.060   1.898  0.00  0.00    +0.000 A 
ATOM     29  C   UNL     1       0.480  -7.310   2.119  0.00  0.00    +0.000 A 
ATOM     30  C   UNL     1       0.493  -8.195   1.072  0.00  0.00    +0.000 A 
ATOM     31  C   UNL     1       1.151  -7.854  -0.106  0.00  0.00    +0.000 A 
ATOM     32  C   UNL     1       2.018  -6.743  -0.138  0.00  0.00    +0.000 A 
BRANCH  30  33
ATOM     33  O   UNL     1      -0.190  -9.368   1.152  0.00  0.00    +0.000 OA
ATOM     34  H   UNL     1      -0.525  -9.474   2.061  0.00  0.00    +0.000 HD
ENDBRANCH  30  33
ENDBRANCH  26  27
BRANCH  26  35
ATOM     35  N   UNL     1       2.351  -3.514   0.394  0.00  0.00    +0.000 N 
ATOM     36  C   UNL     1       2.645  -2.175   0.587  0.00  0.00    +0.000 C 
ATOM     37  O   UNL     1       3.492  -1.711   1.330  0.00  0.00    +0.000 OA
ATOM     38  H   UNL     1       1.973  -3.741  -0.522  0.00  0.00    +0.000 HD
BRANCH  36  39
ATOM     39  C   UNL     1       1.767  -1.231  -0.131  0.00  0.00    +0.000 A 
ATOM     40  C   UNL     1       0.394  -1.421  -0.246  0.00  0.00    +0.000 A 
ATOM     41  C   UNL     1      -0.376  -0.503  -0.951  0.00  0.00    +0.000 A 
ATOM     42  C   UNL     1       0.265   0.535  -1.618  0.00  0.00    +0.000 A 
ATOM     43  C   UNL     1      -0.484   1.362  -2.626  0.00  0.00    +0.000 C 
ATOM     44  N   UNL     1       1.584   0.792  -1.446  0.00  0.00    +0.000 NA
ATOM     45  C   UNL     1       2.291  -0.060  -0.656  0.00  0.00    +0.000 A 
BRANCH  40  46
ATOM     46  O   UNL     1      -0.277  -2.477   0.309  0.00  0.00    +0.000 OA
ATOM     47  H   UNL     1       0.352  -3.045   0.794  0.00  0.00    +0.000 HD
ENDBRANCH  40  46
ENDBRANCH  36  39
ENDBRANCH  26  35
ENDBRANCH   2  26
TORSDOF 12
