REMARK  Name = Cefpirome
REMARK  8 active torsions:
REMARK  status: ('A' for Active; 'I' for Inactive)
REMARK    1  A    between atoms: C_5  and  C_6
REMARK    2  A    between atoms: C_6  and  N_7
REMARK    3  A    between atoms: CA_16  and  C_34
REMARK    4  A    between atoms: CA_20  and  N_21
REMARK    5  A    between atoms: C_22  and  C_24
REMARK    6  A    between atoms: C_24  and  C_28
REMARK    7  A    between atoms: N_25  and  O_26
REMARK    8  A    between atoms: O_26  and  C_27
REMARK                            x       y       z     vdW  Elec       q    Type
REMARK                         _______ _______ _______ _____ _____    ______ ____
ROOT
ATOM      1  C   UNL     1       1.994  -0.101  -0.001  0.00  0.00    +0.000 C 
ATOM      2  S   UNL     1       2.399   0.174   1.743  0.00  0.00    +0.000 S 
ATOM      3  C   UNL     1       1.872   1.900   1.637  0.00  0.00    +0.000 C 
ATOM      4  C   UNL     1       2.584   2.705   0.571  0.00  0.00    +0.000 C 
ATOM      5  CA  UNL     1       3.052   2.125  -0.572  0.00  0.00    +0.000 C 
ATOM      6  N   UNL     1       2.832   0.778  -0.804  0.00  0.00    +0.000 N 
ATOM      7  C   UNL     1       3.671  -0.212  -1.242  0.00  0.00    +0.000 C 
ATOM      8  O   UNL     1       4.786  -0.245  -1.695  0.00  0.00    +0.000 OA
ATOM      9  CA  UNL     1       2.671  -1.291  -0.724  0.00  0.00    +0.000 C 
ENDROOT
BRANCH   9  10
ATOM     10  N   UNL     1       3.179  -2.420   0.103  0.00  0.00    +0.000 N 
ATOM     11  C   UNL     1       2.505  -3.631   0.178  0.00  0.00    +0.000 C 
ATOM     12  O   UNL     1       1.386  -3.766  -0.302  0.00  0.00    +0.000 OA
ATOM     13  H   UNL     1       4.096  -2.372   0.539  0.00  0.00    +0.000 HD
BRANCH  11  14
ATOM     14  C   UNL     1       3.168  -4.803   0.950  0.00  0.00    +0.000 C 
ATOM     15  N   UNL     1       4.327  -4.734   1.570  0.00  0.00    +0.000 NA
BRANCH  14  16
ATOM     16  C   UNL     1       2.437  -6.085   1.083  0.00  0.00    +0.000 A 
ATOM     17  C   UNL     1       2.322  -6.768   2.282  0.00  0.00    +0.000 A 
ATOM     18  S   UNL     1       1.390  -8.189   2.090  0.00  0.00    +0.000 S 
ATOM     19  C   UNL     1       1.195  -7.830   0.422  0.00  0.00    +0.000 A 
ATOM     20  N   UNL     1       0.494  -8.656  -0.368  0.00  0.00    +0.000 N 
ATOM     21  N   UNL     1       1.775  -6.721   0.020  0.00  0.00    +0.000 NA
ATOM     22  H   UNL     1       0.050  -9.493  -0.013  0.00  0.00    +0.000 HD
ATOM     23  H   UNL     1       0.359  -8.439  -1.347  0.00  0.00    +0.000 HD
ENDBRANCH  14  16
BRANCH  15  24
ATOM     24  O   UNL     1       4.952  -3.490   1.417  0.00  0.00    +0.000 OA
ATOM     25  C   UNL     1       6.222  -3.453   2.052  0.00  0.00    +0.000 C 
ENDBRANCH  15  24
ENDBRANCH  11  14
ENDBRANCH   9  10
BRANCH   5  26
ATOM     26  C   UNL     1       3.812   3.005  -1.694  0.00  0.00    +0.000 C 
ATOM     27  O   UNL     1       4.053   2.426  -2.779  0.00  0.00    +0.000 OA
ATOM     28  OXT UNL     1       3.973   4.223  -1.378  0.00  0.00    +0.000 OA
ENDBRANCH   5  26
BRANCH   4  29
ATOM     29  C   UNL     1       2.772   4.211   0.806  0.00  0.00    +0.000 C 
BRANCH  29  30
ATOM     30  N   UNL     1       2.214   4.696   2.100  0.00  0.00    +0.000 N 
ATOM     31  C   UNL     1       1.147   5.518   2.140  0.00  0.00    +0.000 A 
ATOM     32  C   UNL     1       0.507   6.162   0.957  0.00  0.00    +0.000 C 
ATOM     33  C   UNL     1      -0.642   6.971   1.558  0.00  0.00    +0.000 C 
ATOM     34  C   UNL     1      -0.627   6.791   3.092  0.00  0.00    +0.000 C 
ATOM     35  C   UNL     1       0.542   5.878   3.335  0.00  0.00    +0.000 A 
ATOM     36  C   UNL     1       1.039   5.370   4.525  0.00  0.00    +0.000 A 
ATOM     37  C   UNL     1       2.182   4.567   4.479  0.00  0.00    +0.000 A 
ATOM     38  C   UNL     1       2.798   4.306   3.257  0.00  0.00    +0.000 A 
ENDBRANCH  29  30
ENDBRANCH   4  29
TORSDOF 7
