REMARK  Name = Cefradine
REMARK  7 active torsions:
REMARK  status: ('A' for Active; 'I' for Inactive)
REMARK    1  A    between atoms: C_5  and  C_6
REMARK    2  A    between atoms: CA_7  and  C_23
REMARK    3  A    between atoms: CA_11  and  N_12
REMARK    4  A    between atoms: C_13  and  CA_15
REMARK    5  A    between atoms: CA_15  and  N_16
REMARK    6  A    between atoms: CA_15  and  C_17
REMARK    7  A    between atoms: C_23  and  O_24
REMARK                            x       y       z     vdW  Elec       q    Type
REMARK                         _______ _______ _______ _____ _____    ______ ____
ROOT
ATOM      1  C   UNL     1       2.249  -4.395  -6.877  0.00  0.00    +0.000 C 
ATOM      2  S   UNL     1       3.933  -4.755  -7.402  0.00  0.00    +0.000 S 
ATOM      3  C   UNL     1       3.761  -3.721  -8.896  0.00  0.00    +0.000 C 
ATOM      4  C   UNL     1       2.527  -4.029  -9.721  0.00  0.00    +0.000 C 
ATOM      5  C   UNL     1       2.664  -3.526 -11.146  0.00  0.00    +0.000 C 
ATOM      6  CA  UNL     1       1.430  -4.674  -9.241  0.00  0.00    +0.000 C 
ATOM      7  N   UNL     1       1.329  -4.912  -7.890  0.00  0.00    +0.000 N 
ATOM      8  C   UNL     1       0.891  -5.955  -7.149  0.00  0.00    +0.000 C 
ATOM      9  O   UNL     1       0.235  -6.918  -7.483  0.00  0.00    +0.000 OA
ATOM     10  CA  UNL     1       1.554  -5.351  -5.873  0.00  0.00    +0.000 C 
ENDROOT
BRANCH  10  11
ATOM     11  N   UNL     1       2.317  -6.276  -4.972  0.00  0.00    +0.000 N 
ATOM     12  C   UNL     1       1.681  -6.708  -3.804  0.00  0.00    +0.000 C 
ATOM     13  O   UNL     1       0.507  -6.394  -3.587  0.00  0.00    +0.000 OA
ATOM     14  H   UNL     1       3.325  -6.383  -5.052  0.00  0.00    +0.000 HD
BRANCH  12  15
ATOM     15  CA  UNL     1       2.566  -7.445  -2.728  0.00  0.00    +0.000 C 
BRANCH  15  16
ATOM     16  C   UNL     1       3.603  -6.510  -2.138  0.00  0.00    +0.000 C 
ATOM     17  C   UNL     1       3.491  -5.170  -2.258  0.00  0.00    +0.000 C 
ATOM     18  C   UNL     1       4.470  -4.175  -1.742  0.00  0.00    +0.000 C 
ATOM     19  C   UNL     1       5.629  -4.798  -1.037  0.00  0.00    +0.000 C 
ATOM     20  C   UNL     1       5.767  -6.124  -0.876  0.00  0.00    +0.000 C 
ATOM     21  C   UNL     1       4.772  -7.134  -1.392  0.00  0.00    +0.000 C 
ENDBRANCH  15  16
BRANCH  15  22
ATOM     22  N   UNL     1       1.694  -7.931  -1.643  0.00  0.00    +0.000 NA
ATOM     23  H1  UNL     1       1.236  -7.118  -1.224  0.00  0.00    +0.000 HD
ATOM     24  H2  UNL     1       2.231  -8.379  -0.909  0.00  0.00    +0.000 HD
ENDBRANCH  15  22
ENDBRANCH  12  15
ENDBRANCH  10  11
BRANCH   6  25
ATOM     25  C   UNL     1       0.313  -5.069 -10.197  0.00  0.00    +0.000 C 
ATOM     26  OXT UNL     1       0.348  -4.868 -11.404  0.00  0.00    +0.000 OA
BRANCH  25  27
ATOM     27  O   UNL     1      -0.798  -5.596  -9.645  0.00  0.00    +0.000 OA
ATOM     28  H   UNL     1      -0.717  -5.935  -8.733  0.00  0.00    +0.000 HD
ENDBRANCH  25  27
ENDBRANCH   6  25
TORSDOF 6
