REMARK  Name = Ceftibuten
REMARK  8 active torsions:
REMARK  status: ('A' for Active; 'I' for Inactive)
REMARK    1  A    between atoms: CA_6  and  C_26
REMARK    2  A    between atoms: CA_10  and  N_11
REMARK    3  A    between atoms: C_12  and  C_14
REMARK    4  A    between atoms: C_14  and  C_20
REMARK    5  A    between atoms: C_15  and  C_16
REMARK    6  A    between atoms: C_16  and  C_17
REMARK    7  A    between atoms: C_17  and  O_18
REMARK    8  A    between atoms: C_26  and  O_27
REMARK                            x       y       z     vdW  Elec       q    Type
REMARK                         _______ _______ _______ _____ _____    ______ ____
ROOT
ATOM      1  N   UNL     1       3.107  -2.299   0.096  0.00  0.00    +0.000 N 
ATOM      2  C   UNL     1       2.450  -3.519   0.199  0.00  0.00    +0.000 C 
ATOM      3  O   UNL     1       1.334  -3.639  -0.303  0.00  0.00    +0.000 OA
ATOM      4  H   UNL     1       3.988  -2.104   0.524  0.00  0.00    +0.000 HD
ENDROOT
BRANCH   1  13
ATOM      5  CE  UNL     1       1.970   0.050   0.042  0.00  0.00    +0.000 C 
ATOM      6  SD  UNL     1       2.446   0.331   1.781  0.00  0.00    +0.000 S 
ATOM      7  CG  UNL     1       1.952   2.090   1.719  0.00  0.00    +0.000 C 
ATOM      8  CB  UNL     1       2.608   2.802   0.575  0.00  0.00    +0.000 C 
ATOM      9  CA  UNL     1       3.051   2.228  -0.562  0.00  0.00    +0.000 C 
ATOM     10  N   UNL     1       2.799   0.905  -0.813  0.00  0.00    +0.000 N 
ATOM     11  C   UNL     1       3.613  -0.094  -1.242  0.00  0.00    +0.000 C 
ATOM     12  O   UNL     1       4.668  -0.037  -1.818  0.00  0.00    +0.000 OA
ATOM     13  CA  UNL     1       2.591  -1.167  -0.712  0.00  0.00    +0.000 C 
BRANCH   9  14
ATOM     14  C   UNL     1       3.768   3.132  -1.534  0.00  0.00    +0.000 C 
ATOM     15  OXT UNL     1       3.939   4.326  -1.323  0.00  0.00    +0.000 OA
BRANCH  14  16
ATOM     16  O   UNL     1       4.132   2.574  -2.705  0.00  0.00    +0.000 OA
ATOM     17  H   UNL     1       4.136   1.597  -2.729  0.00  0.00    +0.000 HD
ENDBRANCH  14  16
ENDBRANCH   9  14
ENDBRANCH   1  13
BRANCH   2  18
ATOM     18  C   UNL     1       3.109  -4.682   0.961  0.00  0.00    +0.000 C 
ATOM     19  C   UNL     1       4.330  -4.597   1.552  0.00  0.00    +0.000 C 
BRANCH  18  20
ATOM     20  C   UNL     1       2.361  -5.932   1.114  0.00  0.00    +0.000 A 
ATOM     21  C   UNL     1       2.265  -6.617   2.314  0.00  0.00    +0.000 A 
ATOM     22  S   UNL     1       1.386  -8.069   2.111  0.00  0.00    +0.000 S 
ATOM     23  C   UNL     1       1.204  -7.709   0.441  0.00  0.00    +0.000 A 
ATOM     24  N   UNL     1       0.532  -8.556  -0.350  0.00  0.00    +0.000 N 
ATOM     25  N   UNL     1       1.781  -6.595   0.039  0.00  0.00    +0.000 NA
ATOM     26  H   UNL     1       0.053  -9.368   0.022  0.00  0.00    +0.000 HD
ATOM     27  H   UNL     1       0.358  -8.321  -1.318  0.00  0.00    +0.000 HD
ENDBRANCH  18  20
BRANCH  19  28
ATOM     28  C   UNL     1       5.252  -3.422   1.599  0.00  0.00    +0.000 C 
BRANCH  28  29
ATOM     29  C   UNL     1       6.588  -3.433   2.303  0.00  0.00    +0.000 C 
ATOM     30  O   UNL     1       7.298  -2.435   2.305  0.00  0.00    +0.000 OA
BRANCH  29  31
ATOM     31  O   UNL     1       6.948  -4.562   2.928  0.00  0.00    +0.000 OA
ATOM     32  H   UNL     1       6.336  -5.312   2.874  0.00  0.00    +0.000 HD
ENDBRANCH  29  31
ENDBRANCH  28  29
ENDBRANCH  19  28
ENDBRANCH   2  18
TORSDOF 8
