REMARK  Name = Ceftobiprole
REMARK  8 active torsions:
REMARK  status: ('A' for Active; 'I' for Inactive)
REMARK    1  A    between atoms: CA_2  and  N_3
REMARK    2  A    between atoms: C_4  and  C_6
REMARK    3  A    between atoms: C_6  and  C_9
REMARK    4  A    between atoms: N_7  and  O_8
REMARK    5  A    between atoms: CA_18  and  C_19
REMARK    6  A    between atoms: C_19  and  O_20
REMARK    7  A    between atoms: C_22  and  C_27
REMARK    8  A    between atoms: N_31  and  C_34
REMARK                            x       y       z     vdW  Elec       q    Type
REMARK                         _______ _______ _______ _____ _____    ______ ____
ROOT
ATOM      1  CA  UNL     1       2.058   0.118  -0.032  0.00  0.00    +0.000 C 
ATOM      2  C   UNL     1       2.680  -1.310  -0.042  0.00  0.00    +0.000 C 
ATOM      3  O   UNL     1       2.765  -2.267   0.684  0.00  0.00    +0.000 OA
ATOM      4  N   UNL     1       3.045  -1.171  -1.345  0.00  0.00    +0.000 N 
ATOM      5  CA  UNL     1       3.987  -1.834  -2.097  0.00  0.00    +0.000 C 
ATOM      6  C   UNL     1       4.815  -1.131  -2.916  0.00  0.00    +0.000 C 
ATOM      7  C   UNL     1       4.836   0.381  -3.025  0.00  0.00    +0.000 C 
ATOM      8  S   UNL     1       4.175   1.273  -1.620  0.00  0.00    +0.000 S 
ATOM      9  C   UNL     1       2.711   0.249  -1.446  0.00  0.00    +0.000 C 
ENDROOT
BRANCH   6  10
ATOM     10  C   UNL     1       5.803  -1.766  -3.793  0.00  0.00    +0.000 C 
ATOM     11  C   UNL     1       7.134  -1.679  -3.655  0.00  0.00    +0.000 C 
ATOM     12  C   UNL     1       7.924  -0.946  -2.621  0.00  0.00    +0.000 C 
ATOM     13  C   UNL     1       9.360  -1.334  -2.914  0.00  0.00    +0.000 C 
ATOM     14  N   UNL     1       9.342  -2.015  -4.191  0.00  0.00    +0.000 N 
ATOM     15  C   UNL     1       8.068  -2.353  -4.600  0.00  0.00    +0.000 C 
ATOM     16  O   UNL     1       7.749  -3.011  -5.573  0.00  0.00    +0.000 OA
BRANCH  14  17
ATOM     17  C   UNL     1      10.548  -2.362  -4.951  0.00  0.00    +0.000 C 
ATOM     18  C   UNL     1      11.496  -3.275  -4.187  0.00  0.00    +0.000 C 
ATOM     19  C   UNL     1      12.396  -2.300  -3.456  0.00  0.00    +0.000 C 
ATOM     20  N   UNL     1      12.640  -1.225  -4.426  0.00  0.00    +0.000 NA
ATOM     21  C   UNL     1      11.421  -1.134  -5.262  0.00  0.00    +0.000 C 
ATOM     22  H   UNL     1      13.410  -1.517  -5.029  0.00  0.00    +0.000 HD
ENDBRANCH  14  17
ENDBRANCH   6  10
BRANCH   1  23
ATOM     23  N   UNL     1       2.386   1.085   1.057  0.00  0.00    +0.000 N 
ATOM     24  C   UNL     1       3.648   1.341   1.588  0.00  0.00    +0.000 C 
ATOM     25  O   UNL     1       4.644   0.720   1.243  0.00  0.00    +0.000 OA
ATOM     26  H   UNL     1       1.621   1.527   1.566  0.00  0.00    +0.000 HD
BRANCH  24  27
ATOM     27  C   UNL     1       3.778   2.414   2.698  0.00  0.00    +0.000 C 
ATOM     28  N   UNL     1       2.753   2.975   3.305  0.00  0.00    +0.000 NA
BRANCH  27  29
ATOM     29  C   UNL     1       5.154   2.821   3.129  0.00  0.00    +0.000 A 
ATOM     30  N   UNL     1       5.468   2.921   4.433  0.00  0.00    +0.000 NA
ATOM     31  S   UNL     1       7.083   3.343   4.533  0.00  0.00    +0.000 S 
ATOM     32  C   UNL     1       7.290   3.442   2.826  0.00  0.00    +0.000 A 
ATOM     33  N   UNL     1       8.446   3.799   2.238  0.00  0.00    +0.000 N 
ATOM     34  N   UNL     1       6.176   3.133   2.197  0.00  0.00    +0.000 NA
ATOM     35  H   UNL     1       9.289   4.024   2.755  0.00  0.00    +0.000 HD
ATOM     36  H   UNL     1       8.517   3.841   1.228  0.00  0.00    +0.000 HD
ENDBRANCH  27  29
BRANCH  28  37
ATOM     37  O   UNL     1       1.490   2.570   2.841  0.00  0.00    +0.000 OA
ATOM     38  H   UNL     1       0.867   3.077   3.401  0.00  0.00    +0.000 HD
ENDBRANCH  28  37
ENDBRANCH  24  27
ENDBRANCH   1  23
BRANCH   5  39
ATOM     39  C   UNL     1       4.096  -3.358  -2.050  0.00  0.00    +0.000 C 
ATOM     40  OXT UNL     1       4.911  -4.012  -2.686  0.00  0.00    +0.000 OA
BRANCH  39  41
ATOM     41  O   UNL     1       3.149  -4.007  -1.340  0.00  0.00    +0.000 OA
ATOM     42  H   UNL     1       2.687  -3.481  -0.660  0.00  0.00    +0.000 HD
ENDBRANCH  39  41
ENDBRANCH   5  39
TORSDOF 8
