REMARK  Name = Ceftizoxime
REMARK  7 active torsions:
REMARK  status: ('A' for Active; 'I' for Inactive)
REMARK    1  A    between atoms: CA_6  and  C_24
REMARK    2  A    between atoms: CA_10  and  N_11
REMARK    3  A    between atoms: C_12  and  C_14
REMARK    4  A    between atoms: C_14  and  C_18
REMARK    5  A    between atoms: N_15  and  O_16
REMARK    6  A    between atoms: O_16  and  C_17
REMARK    7  A    between atoms: C_24  and  O_25
REMARK                            x       y       z     vdW  Elec       q    Type
REMARK                         _______ _______ _______ _____ _____    ______ ____
ROOT
ATOM      1  N   UNL     1       3.335  -2.369   0.040  0.00  0.00    +0.000 N 
ATOM      2  C   UNL     1       2.659  -3.583   0.107  0.00  0.00    +0.000 C 
ATOM      3  O   UNL     1       1.548  -3.714  -0.394  0.00  0.00    +0.000 OA
ATOM      4  H   UNL     1       4.239  -2.329   0.504  0.00  0.00    +0.000 HD
ENDROOT
BRANCH   1  13
ATOM      5  CE  UNL     1       2.150  -0.036  -0.047  0.00  0.00    +0.000 C 
ATOM      6  SD  UNL     1       2.593   0.275   1.690  0.00  0.00    +0.000 S 
ATOM      7  CG  UNL     1       2.088   2.025   1.607  0.00  0.00    +0.000 C 
ATOM      8  CB  UNL     1       2.743   2.733   0.461  0.00  0.00    +0.000 C 
ATOM      9  CA  UNL     1       3.192   2.157  -0.672  0.00  0.00    +0.000 C 
ATOM     10  N   UNL     1       2.962   0.827  -0.911  0.00  0.00    +0.000 N 
ATOM     11  C   UNL     1       3.797  -0.160  -1.329  0.00  0.00    +0.000 C 
ATOM     12  O   UNL     1       4.834  -0.084  -1.938  0.00  0.00    +0.000 OA
ATOM     13  CA  UNL     1       2.821  -1.243  -0.771  0.00  0.00    +0.000 C 
BRANCH   9  14
ATOM     14  C   UNL     1       3.905   3.061  -1.647  0.00  0.00    +0.000 C 
ATOM     15  OXT UNL     1       4.077   4.255  -1.436  0.00  0.00    +0.000 OA
BRANCH  14  16
ATOM     16  O   UNL     1       4.269   2.503  -2.818  0.00  0.00    +0.000 OA
ATOM     17  H   UNL     1       4.270   1.525  -2.842  0.00  0.00    +0.000 HD
ENDBRANCH  14  16
ENDBRANCH   9  14
ENDBRANCH   1  13
BRANCH   2  18
ATOM     18  C   UNL     1       3.317  -4.758   0.878  0.00  0.00    +0.000 C 
ATOM     19  N   UNL     1       4.480  -4.689   1.489  0.00  0.00    +0.000 NA
BRANCH  18  20
ATOM     20  C   UNL     1       2.585  -6.038   1.009  0.00  0.00    +0.000 A 
ATOM     21  C   UNL     1       2.470  -6.722   2.206  0.00  0.00    +0.000 A 
ATOM     22  S   UNL     1       1.538  -8.143   2.012  0.00  0.00    +0.000 S 
ATOM     23  C   UNL     1       1.344  -7.784   0.344  0.00  0.00    +0.000 A 
ATOM     24  N   UNL     1       0.646  -8.611  -0.446  0.00  0.00    +0.000 N 
ATOM     25  N   UNL     1       1.925  -6.674  -0.056  0.00  0.00    +0.000 NA
ATOM     26  H   UNL     1       0.199  -9.446  -0.088  0.00  0.00    +0.000 HD
ATOM     27  H   UNL     1       0.505  -8.395  -1.424  0.00  0.00    +0.000 HD
ENDBRANCH  18  20
BRANCH  19  28
ATOM     28  O   UNL     1       5.108  -3.447   1.334  0.00  0.00    +0.000 OA
ATOM     29  C   UNL     1       6.373  -3.407   1.977  0.00  0.00    +0.000 C 
ENDBRANCH  19  28
ENDBRANCH   2  18
TORSDOF 6
