REMARK  Name = Ceftazidime
REMARK  12 active torsions:
REMARK  status: ('A' for Active; 'I' for Inactive)
REMARK    1  A    between atoms: C_2  and  CA_4
REMARK    2  A    between atoms: C_5  and  C_32
REMARK    3  A    between atoms: CA_10  and  N_11
REMARK    4  A    between atoms: C_12  and  C_14
REMARK    5  A    between atoms: C_14  and  C_23
REMARK    6  A    between atoms: N_15  and  O_16
REMARK    7  A    between atoms: O_16  and  C_17
REMARK    8  A    between atoms: C_17  and  C_18
REMARK    9  A    between atoms: C_17  and  C_19
REMARK   10  A    between atoms: C_17  and  C_20
REMARK   11  A    between atoms: C_20  and  O_21
REMARK   12  A    between atoms: C_32  and  N_33
REMARK                            x       y       z     vdW  Elec       q    Type
REMARK                         _______ _______ _______ _____ _____    ______ ____
ROOT
ATOM      1  N   UNL     1       5.975  -4.450   0.059  0.00  0.00    +0.000 N 
ATOM      2  C   UNL     1       5.059  -5.476   0.047  0.00  0.00    +0.000 C 
ATOM      3  O   UNL     1       3.851  -5.320   0.000  0.00  0.00    +0.000 OA
ATOM      4  H   UNL     1       6.892  -4.822   0.216  0.00  0.00    +0.000 HD
ENDROOT
BRANCH   1  10
ATOM      5  CA  UNL     1       3.145  -0.997  -0.894  0.00  0.00    +0.000 C 
ATOM      6  C   UNL     1       2.710  -1.169  -2.170  0.00  0.00    +0.000 C 
ATOM      7  C   UNL     1       3.447  -2.051  -3.146  0.00  0.00    +0.000 C 
ATOM      8  S   UNL     1       4.397  -3.397  -2.459  0.00  0.00    +0.000 S 
ATOM      9  C   UNL     1       5.236  -2.335  -1.284  0.00  0.00    +0.000 C 
ATOM     10  CA  UNL     1       5.762  -2.984   0.016  0.00  0.00    +0.000 C 
ATOM     11  C   UNL     1       4.542  -2.306   0.696  0.00  0.00    +0.000 C 
ATOM     12  O   UNL     1       4.013  -2.379   1.773  0.00  0.00    +0.000 OA
ATOM     13  N   UNL     1       4.287  -1.619  -0.456  0.00  0.00    +0.000 N 
BRANCH   5  15
ATOM     14  O   UNL     1       1.100  -0.038  -0.074  0.00  0.00    +0.000 OA
ATOM     15  C   UNL     1       2.359   0.001   0.061  0.00  0.00    +0.000 C 
ATOM     16  OXT UNL     1       3.090   0.865   0.616  0.00  0.00    +0.000 OA
ENDBRANCH   5  15
BRANCH   6  17
ATOM     17  C   UNL     1       1.439  -0.449  -2.648  0.00  0.00    +0.000 C 
BRANCH  17  18
ATOM     18  N   UNL     1       1.099  -0.763  -4.069  0.00  0.00    +0.000 N 
ATOM     19  C   UNL     1       0.751  -2.030  -4.405  0.00  0.00    +0.000 A 
ATOM     20  C   UNL     1       0.855  -2.442  -5.728  0.00  0.00    +0.000 A 
ATOM     21  C   UNL     1       1.018  -1.485  -6.718  0.00  0.00    +0.000 A 
ATOM     22  C   UNL     1       1.078  -0.144  -6.361  0.00  0.00    +0.000 A 
ATOM     23  C   UNL     1       1.189   0.196  -5.016  0.00  0.00    +0.000 A 
ENDBRANCH  17  18
ENDBRANCH   6  17
ENDBRANCH   1  10
BRANCH   2  24
ATOM     24  C   UNL     1       5.692  -6.902   0.148  0.00  0.00    +0.000 C 
ATOM     25  N   UNL     1       6.979  -7.154   0.317  0.00  0.00    +0.000 NA
BRANCH  24  26
ATOM     26  C   UNL     1       4.795  -8.070   0.078  0.00  0.00    +0.000 A 
ATOM     27  C   UNL     1       4.872  -9.166   0.920  0.00  0.00    +0.000 A 
ATOM     28  S   UNL     1       3.643 -10.300   0.547  0.00  0.00    +0.000 S 
ATOM     29  C   UNL     1       3.093  -9.281  -0.719  0.00  0.00    +0.000 A 
ATOM     30  N   UNL     1       2.060  -9.641  -1.493  0.00  0.00    +0.000 N 
ATOM     31  N   UNL     1       3.766  -8.165  -0.867  0.00  0.00    +0.000 NA
ATOM     32  H   UNL     1       1.532 -10.486  -1.323  0.00  0.00    +0.000 HD
ATOM     33  H   UNL     1       1.704  -8.999  -2.188  0.00  0.00    +0.000 HD
ENDBRANCH  24  26
BRANCH  25  34
ATOM     34  O   UNL     1       7.826  -6.019   0.359  0.00  0.00    +0.000 OA
BRANCH  34  35
ATOM     35  C   UNL     1       9.222  -6.334   0.508  0.00  0.00    +0.000 C 
ATOM     36  C   UNL     1       9.476  -7.073   1.822  0.00  0.00    +0.000 C 
ATOM     37  C   UNL     1       9.732  -7.159  -0.677  0.00  0.00    +0.000 C 
BRANCH  35  38
ATOM     38  C   UNL     1      10.059  -5.025   0.543  0.00  0.00    +0.000 C 
ATOM     39  O   UNL     1      11.278  -5.005   0.664  0.00  0.00    +0.000 OA
BRANCH  38  40
ATOM     40  O   UNL     1       9.383  -3.860   0.417  0.00  0.00    +0.000 OA
ATOM     41  H   UNL     1       8.421  -3.929   0.354  0.00  0.00    +0.000 HD
ENDBRANCH  38  40
ENDBRANCH  35  38
ENDBRANCH  34  35
ENDBRANCH  25  34
ENDBRANCH   2  24
TORSDOF 10
