REMARK  Name = Ceftobiprole medocaril
REMARK  12 active torsions:
REMARK  status: ('A' for Active; 'I' for Inactive)
REMARK    1  A    between atoms: CA_2  and  N_3
REMARK    2  A    between atoms: C_4  and  C_6
REMARK    3  A    between atoms: C_6  and  C_9
REMARK    4  A    between atoms: N_7  and  O_8
REMARK    5  A    between atoms: CA_18  and  C_19
REMARK    6  A    between atoms: C_19  and  O_20
REMARK    7  A    between atoms: C_22  and  C_27
REMARK    8  A    between atoms: N_31  and  C_34
REMARK    9  A    between atoms: C_40  and  O_42
REMARK   10  A    between atoms: O_42  and  C_43
REMARK   11  A    between atoms: C_43  and  C_44
REMARK   12  A    between atoms: C_45  and  C_46
REMARK                            x       y       z     vdW  Elec       q    Type
REMARK                         _______ _______ _______ _____ _____    ______ ____
ROOT
ATOM      1  CA  UNL     1       2.036   0.016  -0.045  0.00  0.00    +0.000 C 
ATOM      2  C   UNL     1       2.658  -1.413  -0.054  0.00  0.00    +0.000 C 
ATOM      3  O   UNL     1       2.744  -2.367   0.670  0.00  0.00    +0.000 OA
ATOM      4  N   UNL     1       3.023  -1.272  -1.359  0.00  0.00    +0.000 N 
ATOM      5  CA  UNL     1       3.967  -1.936  -2.110  0.00  0.00    +0.000 C 
ATOM      6  C   UNL     1       4.798  -1.234  -2.929  0.00  0.00    +0.000 C 
ATOM      7  C   UNL     1       4.815   0.279  -3.037  0.00  0.00    +0.000 C 
ATOM      8  S   UNL     1       4.154   1.171  -1.632  0.00  0.00    +0.000 S 
ATOM      9  C   UNL     1       2.689   0.147  -1.459  0.00  0.00    +0.000 C 
ENDROOT
BRANCH   6  10
ATOM     10  C   UNL     1       5.791  -1.869  -3.804  0.00  0.00    +0.000 C 
ATOM     11  C   UNL     1       7.124  -1.780  -3.668  0.00  0.00    +0.000 C 
ATOM     12  C   UNL     1       7.909  -1.045  -2.632  0.00  0.00    +0.000 C 
ATOM     13  C   UNL     1       9.349  -1.423  -2.922  0.00  0.00    +0.000 C 
ATOM     14  N   UNL     1       9.351  -2.077  -4.210  0.00  0.00    +0.000 N 
ATOM     15  C   UNL     1       8.074  -2.442  -4.613  0.00  0.00    +0.000 C 
ATOM     16  O   UNL     1       7.759  -3.109  -5.581  0.00  0.00    +0.000 OA
BRANCH  14  17
ATOM     17  C   UNL     1      10.579  -2.420  -4.954  0.00  0.00    +0.000 C 
ATOM     18  C   UNL     1      11.516  -3.356  -4.182  0.00  0.00    +0.000 C 
ATOM     19  C   UNL     1      12.462  -2.405  -3.445  0.00  0.00    +0.000 C 
ATOM     20  N   UNL     1      12.687  -1.333  -4.393  0.00  0.00    +0.000 N 
ATOM     21  C   UNL     1      11.502  -1.204  -5.274  0.00  0.00    +0.000 C 
ATOM     22  C   UNL     1      13.866  -0.594  -4.546  0.00  0.00    +0.000 C 
ATOM     23  O   UNL     1      14.004   0.237  -5.439  0.00  0.00    +0.000 OA
BRANCH  22  24
ATOM     24  O   UNL     1      14.865  -0.859  -3.620  0.00  0.00    +0.000 OA
BRANCH  24  25
ATOM     25  C   UNL     1      16.129  -0.102  -3.752  0.00  0.00    +0.000 C 
BRANCH  25  26
ATOM     26  C   UNL     1      17.154  -0.462  -2.672  0.00  0.00    +0.000 A 
ATOM     27  C   UNL     1      18.009   0.235  -1.925  0.00  0.00    +0.000 A 
ATOM     28  C   UNL     1      18.363   1.690  -1.806  0.00  0.00    +0.000 C 
ATOM     29  O   UNL     1      18.738  -0.605  -1.082  0.00  0.00    +0.000 OA
ATOM     30  C   UNL     1      18.244  -1.854  -1.403  0.00  0.00    +0.000 A 
ATOM     31  O   UNL     1      18.620  -2.887  -0.862  0.00  0.00    +0.000 OA
ATOM     32  O   UNL     1      17.283  -1.824  -2.396  0.00  0.00    +0.000 OA
ENDBRANCH  25  26
ENDBRANCH  24  25
ENDBRANCH  22  24
ENDBRANCH  14  17
ENDBRANCH   6  10
BRANCH   1  33
ATOM     33  N   UNL     1       2.363   0.984   1.044  0.00  0.00    +0.000 N 
ATOM     34  C   UNL     1       3.625   1.241   1.575  0.00  0.00    +0.000 C 
ATOM     35  O   UNL     1       4.621   0.621   1.229  0.00  0.00    +0.000 OA
ATOM     36  H   UNL     1       1.598   1.424   1.554  0.00  0.00    +0.000 HD
BRANCH  34  37
ATOM     37  C   UNL     1       3.755   2.312   2.686  0.00  0.00    +0.000 C 
ATOM     38  N   UNL     1       2.730   2.874   3.293  0.00  0.00    +0.000 NA
BRANCH  37  39
ATOM     39  C   UNL     1       5.132   2.719   3.117  0.00  0.00    +0.000 A 
ATOM     40  N   UNL     1       5.447   2.820   4.421  0.00  0.00    +0.000 NA
ATOM     41  S   UNL     1       7.061   3.242   4.521  0.00  0.00    +0.000 S 
ATOM     42  C   UNL     1       7.269   3.339   2.814  0.00  0.00    +0.000 A 
ATOM     43  N   UNL     1       8.426   3.694   2.225  0.00  0.00    +0.000 N 
ATOM     44  N   UNL     1       6.155   3.031   2.185  0.00  0.00    +0.000 NA
ATOM     45  H   UNL     1       9.266   3.926   2.743  0.00  0.00    +0.000 HD
ATOM     46  H   UNL     1       8.494   3.743   1.216  0.00  0.00    +0.000 HD
ENDBRANCH  37  39
BRANCH  38  47
ATOM     47  O   UNL     1       1.467   2.469   2.828  0.00  0.00    +0.000 OA
ATOM     48  H   UNL     1       0.843   2.975   3.388  0.00  0.00    +0.000 HD
ENDBRANCH  38  47
ENDBRANCH  34  37
ENDBRANCH   1  33
BRANCH   5  49
ATOM     49  C   UNL     1       4.075  -3.460  -2.063  0.00  0.00    +0.000 C 
ATOM     50  OXT UNL     1       4.891  -4.113  -2.699  0.00  0.00    +0.000 OA
BRANCH  49  51
ATOM     51  O   UNL     1       3.129  -4.109  -1.353  0.00  0.00    +0.000 OA
ATOM     52  H   UNL     1       2.663  -3.584  -0.674  0.00  0.00    +0.000 HD
ENDBRANCH  49  51
ENDBRANCH   5  49
TORSDOF 11
