REMARK  Name = Ceftriaxone
REMARK  11 active torsions:
REMARK  status: ('A' for Active; 'I' for Inactive)
REMARK    1  A    between atoms: C_5  and  C_6
REMARK    2  A    between atoms: C_6  and  S_7
REMARK    3  A    between atoms: S_7  and  C_8
REMARK    4  A    between atoms: N_15  and  C_16
REMARK    5  A    between atoms: CA_17  and  C_35
REMARK    6  A    between atoms: CA_21  and  N_22
REMARK    7  A    between atoms: C_23  and  C_25
REMARK    8  A    between atoms: C_25  and  C_29
REMARK    9  A    between atoms: N_26  and  O_27
REMARK   10  A    between atoms: O_27  and  C_28
REMARK   11  A    between atoms: C_35  and  O_36
REMARK                            x       y       z     vdW  Elec       q    Type
REMARK                         _______ _______ _______ _____ _____    ______ ____
ROOT
ATOM      1  C   UNL     1       2.067  -0.045  -0.070  0.00  0.00    +0.000 C 
ATOM      2  S   UNL     1       2.525   0.234   1.652  0.00  0.00    +0.000 S 
ATOM      3  C   UNL     1       2.006   1.971   1.585  0.00  0.00    +0.000 C 
ATOM      4  C   UNL     1       2.665   2.783   0.478  0.00  0.00    +0.000 C 
ATOM      5  CA  UNL     1       3.119   2.184  -0.667  0.00  0.00    +0.000 C 
ATOM      6  N   UNL     1       2.890   0.836  -0.904  0.00  0.00    +0.000 N 
ATOM      7  C   UNL     1       3.714  -0.159  -1.344  0.00  0.00    +0.000 C 
ATOM      8  O   UNL     1       4.748  -0.088  -1.956  0.00  0.00    +0.000 OA
ATOM      9  CA  UNL     1       2.737  -1.251  -0.798  0.00  0.00    +0.000 C 
ENDROOT
BRANCH   9  10
ATOM     10  N   UNL     1       3.252  -2.386   0.012  0.00  0.00    +0.000 N 
ATOM     11  C   UNL     1       2.575  -3.601   0.083  0.00  0.00    +0.000 C 
ATOM     12  O   UNL     1       1.463  -3.732  -0.416  0.00  0.00    +0.000 OA
ATOM     13  H   UNL     1       4.155  -2.347   0.479  0.00  0.00    +0.000 HD
BRANCH  11  14
ATOM     14  C   UNL     1       3.233  -4.778   0.856  0.00  0.00    +0.000 C 
ATOM     15  N   UNL     1       4.395  -4.710   1.468  0.00  0.00    +0.000 NA
BRANCH  14  16
ATOM     16  C   UNL     1       2.500  -6.060   0.987  0.00  0.00    +0.000 A 
ATOM     17  C   UNL     1       2.386  -6.744   2.185  0.00  0.00    +0.000 A 
ATOM     18  S   UNL     1       1.455  -8.166   1.991  0.00  0.00    +0.000 S 
ATOM     19  C   UNL     1       1.261  -7.807   0.323  0.00  0.00    +0.000 A 
ATOM     20  N   UNL     1       0.563  -8.635  -0.466  0.00  0.00    +0.000 N 
ATOM     21  N   UNL     1       1.841  -6.696  -0.077  0.00  0.00    +0.000 NA
ATOM     22  H   UNL     1       0.115  -9.469  -0.108  0.00  0.00    +0.000 HD
ATOM     23  H   UNL     1       0.421  -8.419  -1.444  0.00  0.00    +0.000 HD
ENDBRANCH  14  16
BRANCH  15  24
ATOM     24  O   UNL     1       5.023  -3.468   1.313  0.00  0.00    +0.000 OA
ATOM     25  C   UNL     1       6.289  -3.430   1.957  0.00  0.00    +0.000 C 
ENDBRANCH  15  24
ENDBRANCH  11  14
ENDBRANCH   9  10
BRANCH   5  26
ATOM     26  C   UNL     1       3.843   3.032  -1.708  0.00  0.00    +0.000 C 
ATOM     27  OXT UNL     1       4.067   4.226  -1.568  0.00  0.00    +0.000 OA
BRANCH  26  28
ATOM     28  O   UNL     1       4.174   2.428  -2.866  0.00  0.00    +0.000 OA
ATOM     29  H   UNL     1       4.178   1.452  -2.870  0.00  0.00    +0.000 HD
ENDBRANCH  26  28
ENDBRANCH   5  26
BRANCH   4  30
ATOM     30  C   UNL     1       2.790   4.317   0.744  0.00  0.00    +0.000 C 
BRANCH  30  31
ATOM     31  S   UNL     1       2.086   4.858   2.338  0.00  0.00    +0.000 S 
BRANCH  31  32
ATOM     32  C   UNL     1       2.366   6.598   2.405  0.00  0.00    +0.000 A 
ATOM     33  N   UNL     1       1.622   7.294   1.615  0.00  0.00    +0.000 NA
ATOM     34  C   UNL     1       1.687   8.666   1.760  0.00  0.00    +0.000 A 
ATOM     35  O   UNL     1       0.997   9.415   1.074  0.00  0.00    +0.000 OA
ATOM     36  C   UNL     1       2.600   9.338   2.813  0.00  0.00    +0.000 A 
ATOM     37  O   UNL     1       2.673  10.548   2.966  0.00  0.00    +0.000 OA
ATOM     38  N   UNL     1       3.329   8.456   3.576  0.00  0.00    +0.000 N 
ATOM     39  N   UNL     1       3.249   7.070   3.371  0.00  0.00    +0.000 N 
ATOM     40  C   UNL     1       4.049   6.241   4.260  0.00  0.00    +0.000 C 
ATOM     41  H   UNL     1       3.956   8.832   4.280  0.00  0.00    +0.000 HD
ENDBRANCH  31  32
ENDBRANCH  30  31
ENDBRANCH   4  30
TORSDOF 9
