REMARK  Name = Ceftolozane
REMARK  18 active torsions:
REMARK  status: ('A' for Active; 'I' for Inactive)
REMARK    1  A    between atoms: C_1  and  N_2
REMARK    2  A    between atoms: C_3  and  N_4
REMARK    3  A    between atoms: C_5  and  N_6
REMARK    4  A    between atoms: N_9  and  C_10
REMARK    5  A    between atoms: C_10  and  C_11
REMARK    6  A    between atoms: C_11  and  N_12
REMARK    7  A    between atoms: N_14  and  C_15
REMARK    8  A    between atoms: C_15  and  C_16
REMARK    9  A    between atoms: CA_17  and  C_43
REMARK   10  A    between atoms: CA_22  and  N_23
REMARK   11  A    between atoms: C_24  and  C_26
REMARK   12  A    between atoms: C_26  and  C_35
REMARK   13  A    between atoms: N_27  and  O_28
REMARK   14  A    between atoms: O_28  and  C_29
REMARK   15  A    between atoms: C_29  and  C_30
REMARK   16  A    between atoms: C_29  and  C_31
REMARK   17  A    between atoms: C_29  and  C_32
REMARK   18  A    between atoms: C_32  and  O_33
REMARK                            x       y       z     vdW  Elec       q    Type
REMARK                         _______ _______ _______ _____ _____    ______ ____
ROOT
ATOM      1  C   UNL     1       1.244   2.609   0.018  0.00  0.00    +0.000 C 
ATOM      2  CA  UNL     1       0.546   3.097  -1.051  0.00  0.00    +0.000 C 
ATOM      3  N   UNL     1      -0.846   3.156  -1.009  0.00  0.00    +0.000 N 
ATOM      4  C   UNL     1      -1.683   2.929   0.156  0.00  0.00    +0.000 C 
ATOM      5  S   UNL     1      -1.036   1.586   1.125  0.00  0.00    +0.000 S 
ATOM      6  C   UNL     1       0.602   2.220   1.328  0.00  0.00    +0.000 C 
ATOM      7  CA  UNL     1      -2.881   2.708  -0.812  0.00  0.00    +0.000 C 
ATOM      8  C   UNL     1      -1.797   2.837  -1.930  0.00  0.00    +0.000 C 
ATOM      9  O   UNL     1      -1.812   2.591  -3.122  0.00  0.00    +0.000 OA
ENDROOT
BRANCH   7  10
ATOM     10  N   UNL     1      -3.757   1.462  -0.829  0.00  0.00    +0.000 N 
ATOM     11  C   UNL     1      -3.957   0.524   0.171  0.00  0.00    +0.000 C 
ATOM     12  O   UNL     1      -3.374   0.521   1.248  0.00  0.00    +0.000 OA
ATOM     13  H   UNL     1      -4.506   1.425  -1.505  0.00  0.00    +0.000 HD
BRANCH  11  14
ATOM     14  C   UNL     1      -4.988  -0.589   0.010  0.00  0.00    +0.000 C 
ATOM     15  N   UNL     1      -5.931  -0.573  -0.908  0.00  0.00    +0.000 NA
BRANCH  14  16
ATOM     16  C   UNL     1      -4.908  -1.717   1.011  0.00  0.00    +0.000 A 
ATOM     17  N   UNL     1      -5.079  -3.000   0.655  0.00  0.00    +0.000 NA
ATOM     18  S   UNL     1      -4.851  -3.939   2.026  0.00  0.00    +0.000 S 
ATOM     19  C   UNL     1      -4.538  -2.599   3.060  0.00  0.00    +0.000 A 
ATOM     20  N   UNL     1      -4.268  -2.707   4.375  0.00  0.00    +0.000 N 
ATOM     21  N   UNL     1      -4.606  -1.476   2.384  0.00  0.00    +0.000 NA
ATOM     22  H   UNL     1      -4.290  -3.587   4.876  0.00  0.00    +0.000 HD
ATOM     23  H   UNL     1      -4.112  -1.878   4.939  0.00  0.00    +0.000 HD
ENDBRANCH  14  16
BRANCH  15  24
ATOM     24  O   UNL     1      -5.917   0.593  -1.729  0.00  0.00    +0.000 OA
BRANCH  24  25
ATOM     25  C   UNL     1      -6.995   0.621  -2.679  0.00  0.00    +0.000 C 
ATOM     26  C   UNL     1      -6.955  -0.623  -3.569  0.00  0.00    +0.000 C 
ATOM     27  C   UNL     1      -8.334   0.710  -1.939  0.00  0.00    +0.000 C 
BRANCH  25  28
ATOM     28  C   UNL     1      -6.923   1.860  -3.617  0.00  0.00    +0.000 C 
ATOM     29  O   UNL     1      -7.755   2.082  -4.491  0.00  0.00    +0.000 OA
BRANCH  28  30
ATOM     30  O   UNL     1      -5.909   2.731  -3.433  0.00  0.00    +0.000 OA
ATOM     31  H   UNL     1      -5.210   2.513  -2.801  0.00  0.00    +0.000 HD
ENDBRANCH  28  30
ENDBRANCH  25  28
ENDBRANCH  24  25
ENDBRANCH  15  24
ENDBRANCH  11  14
ENDBRANCH   7  10
BRANCH   2  32
ATOM     32  C   UNL     1       1.293   3.628  -2.378  0.00  0.00    +0.000 C 
ATOM     33  O   UNL     1       0.576   4.290  -3.170  0.00  0.00    +0.000 OA
ATOM     34  OXT UNL     1       2.537   3.412  -2.419  0.00  0.00    +0.000 OA
ENDBRANCH   2  32
BRANCH   1  35
ATOM     35  C   UNL     1       2.741   2.365   0.060  0.00  0.00    +0.000 C 
BRANCH  35  41
ATOM     36  C   UNL     1       0.956  -0.327  -0.235  0.00  0.00    +0.000 C 
ATOM     37  N   UNL     1       2.385  -0.204  -0.062  0.00  0.00    +0.000 N 
ATOM     38  C   UNL     1       3.192  -1.336   0.003  0.00  0.00    +0.000 A 
ATOM     39  C   UNL     1       4.591  -0.970   0.024  0.00  0.00    +0.000 A 
ATOM     40  C   UNL     1       4.535   0.479   0.033  0.00  0.00    +0.000 A 
ATOM     41  N   UNL     1       3.163   0.920   0.029  0.00  0.00    +0.000 N 
BRANCH  39  42
ATOM     42  N   UNL     1       5.721  -1.807   0.026  0.00  0.00    +0.000 N 
ATOM     43  C   UNL     1       5.630  -3.183   0.010  0.00  0.00    +0.000 C 
ATOM     44  O   UNL     1       4.593  -3.839   0.005  0.00  0.00    +0.000 OA
ATOM     45  N   UNL     1       6.795  -3.889   0.026  0.00  0.00    +0.000 N 
ATOM     46  H   UNL     1       6.633  -1.373   0.002  0.00  0.00    +0.000 HD
ATOM     47  H   UNL     1       7.700  -3.451  -0.028  0.00  0.00    +0.000 HD
BRANCH  45  48
ATOM     48  C   UNL     1       6.666  -5.351  -0.001  0.00  0.00    +0.000 C 
BRANCH  48  49
ATOM     49  C   UNL     1       7.999  -6.086  -0.003  0.00  0.00    +0.000 C 
BRANCH  49  50
ATOM     50  N   UNL     1       7.825  -7.536  -0.019  0.00  0.00    +0.000 NA
ATOM     51  H   UNL     1       7.329  -7.846   0.816  0.00  0.00    +0.000 HD
ATOM     52  H   UNL     1       8.737  -7.990   0.006  0.00  0.00    +0.000 HD
ENDBRANCH  49  50
ENDBRANCH  48  49
ENDBRANCH  45  48
ENDBRANCH  39  42
BRANCH  38  53
ATOM     53  N   UNL     1       2.637  -2.571   0.054  0.00  0.00    +0.000 N 
ATOM     54  H   UNL     1       1.670  -2.848   0.022  0.00  0.00    +0.000 HD
ATOM     55  H   UNL     1       3.235  -3.400   0.021  0.00  0.00    +0.000 HD
ENDBRANCH  38  53
ENDBRANCH  35  41
ENDBRANCH   1  35
TORSDOF 15
