REMARK  Name = Ceftaroline fosamil
REMARK  14 active torsions:
REMARK  status: ('A' for Active; 'I' for Inactive)
REMARK    1  A    between atoms: C_5  and  S_6
REMARK    2  A    between atoms: S_6  and  C_7
REMARK    3  A    between atoms: C_9  and  C_12
REMARK    4  A    between atoms: N_15  and  C_16
REMARK    5  A    between atoms: CA_19  and  C_42
REMARK    6  A    between atoms: CA_23  and  N_24
REMARK    7  A    between atoms: C_25  and  C_27
REMARK    8  A    between atoms: C_27  and  C_32
REMARK    9  A    between atoms: N_28  and  O_29
REMARK   10  A    between atoms: O_29  and  C_30
REMARK   11  A    between atoms: C_30  and  C_31
REMARK   12  A    between atoms: N_36  and  P_37
REMARK   13  A    between atoms: P_37  and  O_38
REMARK   14  A    between atoms: P_37  and  O_39
REMARK                            x       y       z     vdW  Elec       q    Type
REMARK                         _______ _______ _______ _____ _____    ______ ____
ROOT
ATOM      1  C   UNL     1       2.105   0.054  -0.045  0.00  0.00    +0.000 C 
ATOM      2  S   UNL     1       2.513   0.314   1.705  0.00  0.00    +0.000 S 
ATOM      3  C   UNL     1       2.035   2.075   1.627  0.00  0.00    +0.000 C 
ATOM      4  C   UNL     1       2.705   2.884   0.535  0.00  0.00    +0.000 C 
ATOM      5  CA  UNL     1       3.172   2.297  -0.615  0.00  0.00    +0.000 C 
ATOM      6  N   UNL     1       2.961   0.927  -0.830  0.00  0.00    +0.000 N 
ATOM      7  C   UNL     1       3.775  -0.074  -1.296  0.00  0.00    +0.000 C 
ATOM      8  O   UNL     1       4.882  -0.145  -1.768  0.00  0.00    +0.000 OA
ATOM      9  CA  UNL     1       2.768  -1.151  -0.779  0.00  0.00    +0.000 C 
ENDROOT
BRANCH   9  10
ATOM     10  N   UNL     1       3.275  -2.302   0.040  0.00  0.00    +0.000 N 
ATOM     11  C   UNL     1       2.610  -3.524   0.112  0.00  0.00    +0.000 C 
ATOM     12  O   UNL     1       1.492  -3.680  -0.368  0.00  0.00    +0.000 OA
ATOM     13  H   UNL     1       4.202  -2.250   0.458  0.00  0.00    +0.000 HD
BRANCH  11  14
ATOM     14  C   UNL     1       3.273  -4.714   0.860  0.00  0.00    +0.000 C 
ATOM     15  N   UNL     1       4.434  -4.650   1.483  0.00  0.00    +0.000 NA
BRANCH  14  16
ATOM     16  C   UNL     1       2.531  -6.022   0.883  0.00  0.00    +0.000 A 
ATOM     17  N   UNL     1       2.430  -6.739   2.015  0.00  0.00    +0.000 NA
ATOM     18  S   UNL     1       1.552  -8.116   1.673  0.00  0.00    +0.000 S 
ATOM     19  C   UNL     1       1.347  -7.745  -0.009  0.00  0.00    +0.000 A 
ATOM     20  N   UNL     1       0.647  -8.561  -0.853  0.00  0.00    +0.000 N 
ATOM     21  N   UNL     1       1.908  -6.581  -0.279  0.00  0.00    +0.000 NA
ATOM     22  H   UNL     1       0.184  -9.382  -0.507  0.00  0.00    +0.000 HD
BRANCH  20  23
ATOM     23  P   UNL     1       0.511  -8.030  -2.547  0.00  0.00    +0.000 P 
ATOM     24  O   UNL     1       0.393  -7.568  -4.020  0.00  0.00    +0.000 OA
BRANCH  23  25
ATOM     25  O   UNL     1      -0.360  -9.403  -2.795  0.00  0.00    +0.000 OA
ATOM     26  H   UNL     1      -0.193 -10.158  -2.222  0.00  0.00    +0.000 HD
ENDBRANCH  23  25
BRANCH  23  27
ATOM     27  O   UNL     1      -0.771  -7.140  -2.022  0.00  0.00    +0.000 OA
ATOM     28  H   UNL     1      -0.599  -6.711  -1.167  0.00  0.00    +0.000 HD
ENDBRANCH  23  27
ENDBRANCH  20  23
ENDBRANCH  14  16
BRANCH  15  29
ATOM     29  O   UNL     1       5.048  -3.395   1.340  0.00  0.00    +0.000 OA
BRANCH  29  30
ATOM     30  C   UNL     1       6.331  -3.331   1.959  0.00  0.00    +0.000 C 
ATOM     31  C   UNL     1       6.879  -1.930   1.712  0.00  0.00    +0.000 C 
ENDBRANCH  29  30
ENDBRANCH  15  29
ENDBRANCH  11  14
ENDBRANCH   9  10
BRANCH   5  32
ATOM     32  C   UNL     1       3.934   3.111  -1.807  0.00  0.00    +0.000 C 
ATOM     33  O   UNL     1       4.121   2.440  -2.863  0.00  0.00    +0.000 OA
ATOM     34  OXT UNL     1       4.198   4.328  -1.608  0.00  0.00    +0.000 OA
ENDBRANCH   5  32
BRANCH   4  35
ATOM     35  S   UNL     1       2.862   4.635   0.814  0.00  0.00    +0.000 S 
BRANCH  35  36
ATOM     36  C   UNL     1       2.208   5.006   2.388  0.00  0.00    +0.000 A 
ATOM     37  N   UNL     1       2.750   4.601   3.523  0.00  0.00    +0.000 NA
ATOM     38  C   UNL     1       2.037   5.101   4.600  0.00  0.00    +0.000 A 
ATOM     39  C   UNL     1       0.986   5.933   4.276  0.00  0.00    +0.000 A 
ATOM     40  S   UNL     1       0.893   6.105   2.571  0.00  0.00    +0.000 S 
BRANCH  38  41
ATOM     41  C   UNL     1       2.388   4.718   5.959  0.00  0.00    +0.000 A 
ATOM     42  C   UNL     1       3.652   5.011   6.466  0.00  0.00    +0.000 A 
ATOM     43  C   UNL     1       4.048   4.475   7.688  0.00  0.00    +0.000 A 
ATOM     44  N   UNL     1       3.222   3.661   8.385  0.00  0.00    +0.000 N 
ATOM     45  C   UNL     1       3.735   2.918   9.555  0.00  0.00    +0.000 C 
ATOM     46  C   UNL     1       1.953   3.451   7.963  0.00  0.00    +0.000 A 
ATOM     47  C   UNL     1       1.513   3.971   6.747  0.00  0.00    +0.000 A 
ENDBRANCH  38  41
ENDBRANCH  35  36
ENDBRANCH   4  35
TORSDOF 12
