REMARK  Name = Cefuroxime
REMARK  10 active torsions:
REMARK  status: ('A' for Active; 'I' for Inactive)
REMARK    1  A    between atoms: C_5  and  C_6
REMARK    2  A    between atoms: C_6  and  O_7
REMARK    3  A    between atoms: O_7  and  C_8
REMARK    4  A    between atoms: CA_11  and  C_28
REMARK    5  A    between atoms: CA_15  and  N_16
REMARK    6  A    between atoms: C_17  and  C_19
REMARK    7  A    between atoms: C_19  and  C_23
REMARK    8  A    between atoms: N_20  and  O_21
REMARK    9  A    between atoms: O_21  and  C_22
REMARK   10  A    between atoms: C_28  and  O_29
REMARK                            x       y       z     vdW  Elec       q    Type
REMARK                         _______ _______ _______ _____ _____    ______ ____
ROOT
ATOM      1  C   UNL     1       1.988   0.010   0.012  0.00  0.00    +0.000 C 
ATOM      2  S   UNL     1       2.441   0.320   1.737  0.00  0.00    +0.000 S 
ATOM      3  C   UNL     1       1.932   2.071   1.658  0.00  0.00    +0.000 C 
ATOM      4  C   UNL     1       2.593   2.830   0.524  0.00  0.00    +0.000 C 
ATOM      5  CA  UNL     1       3.043   2.223  -0.613  0.00  0.00    +0.000 C 
ATOM      6  N   UNL     1       2.809   0.878  -0.838  0.00  0.00    +0.000 N 
ATOM      7  C   UNL     1       3.633  -0.119  -1.267  0.00  0.00    +0.000 C 
ATOM      8  O   UNL     1       4.662  -0.046  -1.891  0.00  0.00    +0.000 OA
ATOM      9  CA  UNL     1       2.657  -1.207  -0.706  0.00  0.00    +0.000 C 
ENDROOT
BRANCH   9  10
ATOM     10  N   UNL     1       3.173  -2.338   0.116  0.00  0.00    +0.000 N 
ATOM     11  C   UNL     1       2.500  -3.555   0.207  0.00  0.00    +0.000 C 
ATOM     12  O   UNL     1       1.408  -3.707  -0.332  0.00  0.00    +0.000 OA
ATOM     13  H   UNL     1       4.077  -2.293   0.580  0.00  0.00    +0.000 HD
BRANCH  11  14
ATOM     14  C   UNL     1       3.165  -4.732   0.998  0.00  0.00    +0.000 C 
ATOM     15  N   UNL     1       4.328  -4.664   1.598  0.00  0.00    +0.000 NA
BRANCH  14  16
ATOM     16  C   UNL     1       2.414  -5.989   0.969  0.00  0.00    +0.000 A 
ATOM     17  C   UNL     1       1.747  -6.620  -0.072  0.00  0.00    +0.000 A 
ATOM     18  C   UNL     1       1.193  -7.820   0.430  0.00  0.00    +0.000 A 
ATOM     19  C   UNL     1       1.539  -7.864   1.759  0.00  0.00    +0.000 A 
ATOM     20  O   UNL     1       2.295  -6.777   2.095  0.00  0.00    +0.000 OA
ENDBRANCH  14  16
BRANCH  15  21
ATOM     21  O   UNL     1       4.948  -3.421   1.414  0.00  0.00    +0.000 OA
ATOM     22  C   UNL     1       6.222  -3.373   2.038  0.00  0.00    +0.000 C 
ENDBRANCH  15  21
ENDBRANCH  11  14
ENDBRANCH   9  10
BRANCH   5  23
ATOM     23  C   UNL     1       3.765   3.074  -1.655  0.00  0.00    +0.000 C 
ATOM     24  OXT UNL     1       3.973   4.274  -1.526  0.00  0.00    +0.000 OA
BRANCH  23  25
ATOM     25  O   UNL     1       4.094   2.469  -2.811  0.00  0.00    +0.000 OA
ATOM     26  H   UNL     1       4.109   1.493  -2.802  0.00  0.00    +0.000 HD
ENDBRANCH  23  25
ENDBRANCH   5  23
BRANCH   4  27
ATOM     27  C   UNL     1       2.750   4.340   0.757  0.00  0.00    +0.000 C 
BRANCH  27  28
ATOM     28  O   UNL     1       2.205   4.781   2.010  0.00  0.00    +0.000 OA
BRANCH  28  29
ATOM     29  C   UNL     1       2.277   6.088   2.390  0.00  0.00    +0.000 C 
ATOM     30  N   UNL     1       2.838   6.978   1.525  0.00  0.00    +0.000 N 
ATOM     31  O   UNL     1       1.844   6.466   3.471  0.00  0.00    +0.000 OA
ATOM     32  H   UNL     1       3.227   6.763   0.621  0.00  0.00    +0.000 HD
ATOM     33  H   UNL     1       2.870   7.943   1.830  0.00  0.00    +0.000 HD
ENDBRANCH  28  29
ENDBRANCH  27  28
ENDBRANCH   4  27
TORSDOF 9
