REMARK  Name = Celecoxib
REMARK  6 active torsions:
REMARK  status: ('A' for Active; 'I' for Inactive)
REMARK    1  A    between atoms: C_1  and  C_2
REMARK    2  A    between atoms: C_5  and  C_8
REMARK    3  A    between atoms: C_10  and  C_23
REMARK    4  A    between atoms: N_12  and  C_13
REMARK    5  A    between atoms: C_16  and  S_19
REMARK    6  A    between atoms: S_19  and  N_20
REMARK                            x       y       z     vdW  Elec       q    Type
REMARK                         _______ _______ _______ _____ _____    ______ ____
ROOT
ATOM      1  C   UNL     1      -3.244   0.047  -0.052  0.00  0.00    +0.000 A 
ATOM      2  C   UNL     1      -4.064   0.595  -1.014  0.00  0.00    +0.000 A 
ATOM      3  C   UNL     1      -5.385   0.276  -0.626  0.00  0.00    +0.000 A 
ATOM      4  N   UNL     1      -5.385  -0.500   0.477  0.00  0.00    +0.000 NA
ATOM      5  N   UNL     1      -4.080  -0.584   0.849  0.00  0.00    +0.000 N 
ENDROOT
BRANCH   1  10
ATOM      6  C   UNL     1       2.500   0.001  -0.011  0.00  0.00    +0.000 C 
ATOM      7  C   UNL     1       1.002  -0.004   0.004  0.00  0.00    +0.000 A 
ATOM      8  C   UNL     1       0.290  -1.208   0.005  0.00  0.00    +0.000 A 
ATOM      9  C   UNL     1      -1.102  -1.197  -0.007  0.00  0.00    +0.000 A 
ATOM     10  C   UNL     1      -1.793   0.020  -0.015  0.00  0.00    +0.000 A 
ATOM     11  C   UNL     1      -1.085   1.223  -0.011  0.00  0.00    +0.000 A 
ATOM     12  C   UNL     1       0.306   1.211   0.002  0.00  0.00    +0.000 A 
ENDBRANCH   1  10
BRANCH   5  13
ATOM     13  C   UNL     1      -3.744  -1.184   2.090  0.00  0.00    +0.000 A 
ATOM     14  C   UNL     1      -4.301  -2.425   2.419  0.00  0.00    +0.000 A 
ATOM     15  C   UNL     1      -4.093  -2.961   3.692  0.00  0.00    +0.000 A 
ATOM     16  C   UNL     1      -3.290  -2.274   4.611  0.00  0.00    +0.000 A 
ATOM     17  C   UNL     1      -2.719  -1.042   4.277  0.00  0.00    +0.000 A 
ATOM     18  C   UNL     1      -2.931  -0.502   3.005  0.00  0.00    +0.000 A 
BRANCH  16  19
ATOM     19  S   UNL     1      -2.892  -3.038   6.166  0.00  0.00    +0.000 S 
ATOM     20  O   UNL     1      -2.403  -4.369   5.876  0.00  0.00    +0.000 OA
ATOM     21  O   UNL     1      -2.159  -2.093   6.968  0.00  0.00    +0.000 OA
BRANCH  19  22
ATOM     22  N   UNL     1      -4.391  -3.205   6.871  0.00  0.00    +0.000 NA
ATOM     23  H   UNL     1      -4.969  -3.967   6.535  0.00  0.00    +0.000 HD
ATOM     24  H   UNL     1      -4.807  -2.361   7.250  0.00  0.00    +0.000 HD
ENDBRANCH  19  22
ENDBRANCH  16  19
ENDBRANCH   5  13
BRANCH   3  25
ATOM     25  C   UNL     1      -6.633   0.697  -1.353  0.00  0.00    +0.000 C 
ATOM     26  F   UNL     1      -7.402  -0.358  -1.724  0.00  0.00    +0.000 F 
ATOM     27  F   UNL     1      -7.414   1.528  -0.614  0.00  0.00    +0.000 F 
ATOM     28  F   UNL     1      -6.335   1.376  -2.498  0.00  0.00    +0.000 F 
ENDBRANCH   3  25
TORSDOF 5
