REMARK  Name = Celiprolol
REMARK  17 active torsions:
REMARK  status: ('A' for Active; 'I' for Inactive)
REMARK    1  A    between atoms: C_1  and  C_2
REMARK    2  A    between atoms: C_2  and  N_3
REMARK    3  A    between atoms: N_3  and  C_4
REMARK    4  A    between atoms: C_4  and  C_5
REMARK    5  A    between atoms: N_8  and  C_9
REMARK    6  A    between atoms: C_12  and  O_13
REMARK    7  A    between atoms: O_13  and  C_14
REMARK    8  A    between atoms: C_14  and  C_15
REMARK    9  A    between atoms: C_15  and  O_16
REMARK   10  A    between atoms: C_15  and  C_17
REMARK   11  A    between atoms: C_17  and  N_18
REMARK   12  A    between atoms: N_18  and  C_19
REMARK   13  A    between atoms: C_19  and  C_20
REMARK   14  A    between atoms: C_19  and  C_21
REMARK   15  A    between atoms: C_19  and  C_22
REMARK   16  A    between atoms: C_23  and  C_25
REMARK   17  A    between atoms: C_25  and  C_26
REMARK                            x       y       z     vdW  Elec       q    Type
REMARK                         _______ _______ _______ _____ _____    ______ ____
ROOT
ATOM      1  C   UNL     1       6.255   2.830  -1.411  0.00  0.00    +0.000 A 
ATOM      2  C   UNL     1       6.795   4.104  -1.255  0.00  0.00    +0.000 A 
ATOM      3  C   UNL     1       8.164   4.333  -1.513  0.00  0.00    +0.000 A 
ATOM      4  C   UNL     1       9.058   3.301  -1.898  0.00  0.00    +0.000 A 
ATOM      5  C   UNL     1       8.495   1.991  -2.108  0.00  0.00    +0.000 A 
ATOM      6  C   UNL     1       7.110   1.814  -1.838  0.00  0.00    +0.000 A 
ENDROOT
BRANCH   1  10
ATOM      7  N   UNL     1       2.958   1.242  -0.592  0.00  0.00    +0.000 N 
ATOM      8  C   UNL     1       4.369   1.393  -0.667  0.00  0.00    +0.000 C 
ATOM      9  O   UNL     1       5.114   0.522  -0.212  0.00  0.00    +0.000 OA
ATOM     10  N   UNL     1       4.860   2.572  -1.229  0.00  0.00    +0.000 N 
ATOM     11  H   UNL     1       4.235   3.344  -1.384  0.00  0.00    +0.000 HD
BRANCH   7  13
ATOM     12  C   UNL     1       1.056  -0.378   0.248  0.00  0.00    +0.000 C 
ATOM     13  C   UNL     1       2.527  -0.030   0.065  0.00  0.00    +0.000 C 
ENDBRANCH   7  13
BRANCH   7  14
ATOM     14  C   UNL     1       2.031   2.260  -1.125  0.00  0.00    +0.000 C 
ATOM     15  C   UNL     1       0.527   2.067  -1.024  0.00  0.00    +0.000 C 
ENDBRANCH   7  14
ENDBRANCH   1  10
BRANCH   5  16
ATOM     16  C   UNL     1       9.062   0.665  -2.689  0.00  0.00    +0.000 C 
ATOM     17  C   UNL     1      10.425   0.633  -3.226  0.00  0.00    +0.000 C 
ATOM     18  O   UNL     1       8.381  -0.374  -2.795  0.00  0.00    +0.000 OA
ENDBRANCH   5  16
BRANCH   4  19
ATOM     19  O   UNL     1      10.346   3.856  -1.954  0.00  0.00    +0.000 OA
BRANCH  19  20
ATOM     20  C   UNL     1      11.427   3.014  -2.277  0.00  0.00    +0.000 C 
BRANCH  20  21
ATOM     21  C   UNL     1      12.906   3.348  -2.281  0.00  0.00    +0.000 C 
BRANCH  21  22
ATOM     22  O   UNL     1      13.355   3.670  -0.973  0.00  0.00    +0.000 OA
ATOM     23  H   UNL     1      13.102   2.927  -0.399  0.00  0.00    +0.000 HD
ENDBRANCH  21  22
BRANCH  21  24
ATOM     24  C   UNL     1      13.639   2.055  -2.772  0.00  0.00    +0.000 C 
BRANCH  24  25
ATOM     25  N   UNL     1      15.064   2.338  -2.878  0.00  0.00    +0.000 NA
ATOM     26  H   UNL     1      15.365   2.739  -1.986  0.00  0.00    +0.000 HD
BRANCH  25  27
ATOM     27  C   UNL     1      15.910   1.201  -3.254  0.00  0.00    +0.000 C 
ATOM     28  C   UNL     1      15.831   0.076  -2.213  0.00  0.00    +0.000 C 
ATOM     29  C   UNL     1      15.533   0.672  -4.646  0.00  0.00    +0.000 C 
ATOM     30  C   UNL     1      17.351   1.735  -3.303  0.00  0.00    +0.000 C 
ENDBRANCH  25  27
ENDBRANCH  24  25
ENDBRANCH  21  24
ENDBRANCH  20  21
ENDBRANCH  19  20
ENDBRANCH   4  19
TORSDOF 11
