REMARK  Name = Cenobamate
REMARK  5 active torsions:
REMARK  status: ('A' for Active; 'I' for Inactive)
REMARK    1  A    between atoms: C_2  and  O_4
REMARK    2  A    between atoms: O_4  and  C_5
REMARK    3  A    between atoms: C_5  and  C_6
REMARK    4  A    between atoms: C_5  and  C_12
REMARK    5  A    between atoms: C_6  and  N_7
REMARK                            x       y       z     vdW  Elec       q    Type
REMARK                         _______ _______ _______ _____ _____    ______ ____
ROOT
ATOM      1  C   UNL     1       4.415   0.200   1.204  0.00  0.00    +0.000 C 
ENDROOT
BRANCH   1   2
ATOM      2  C   UNL     1       4.951   0.362   2.648  0.00  0.00    +0.000 A 
ATOM      3  C   UNL     1       5.379  -0.727   3.434  0.00  0.00    +0.000 A 
ATOM      4 CL   UNL     1       5.334  -2.355   2.861  0.00  0.00    +0.000 Cl
ATOM      5  C   UNL     1       5.872  -0.535   4.739  0.00  0.00    +0.000 A 
ATOM      6  C   UNL     1       5.943   0.740   5.294  0.00  0.00    +0.000 A 
ATOM      7  C   UNL     1       5.525   1.830   4.544  0.00  0.00    +0.000 A 
ATOM      8  C   UNL     1       5.032   1.644   3.245  0.00  0.00    +0.000 A 
ENDBRANCH   1   2
BRANCH   1   9
ATOM      9  O   UNL     1       2.959   0.310   1.275  0.00  0.00    +0.000 OA
BRANCH   9  11
ATOM     10  N   UNL     1       0.927   0.122   0.290  0.00  0.00    +0.000 N 
ATOM     11  C   UNL     1       2.250  -0.138   0.208  0.00  0.00    +0.000 C 
ATOM     12  O   UNL     1       2.687  -0.709  -0.777  0.00  0.00    +0.000 OA
ATOM     13  H   UNL     1       0.386  -0.166  -0.515  0.00  0.00    +0.000 HD
ATOM     14  H   UNL     1       0.466   0.260   1.174  0.00  0.00    +0.000 HD
ENDBRANCH   9  11
ENDBRANCH   1   9
BRANCH   1  15
ATOM     15  C   UNL     1       5.046   1.289   0.298  0.00  0.00    +0.000 C 
BRANCH  15  16
ATOM     16  N   UNL     1       4.799   1.160  -1.118  0.00  0.00    +0.000 N 
ATOM     17  N   UNL     1       5.070   0.044  -1.820  0.00  0.00    +0.000 NA
ATOM     18  C   UNL     1       4.290   0.278  -2.886  0.00  0.00    +0.000 A 
ATOM     19  N   UNL     1       3.798   1.550  -2.937  0.00  0.00    +0.000 NA
ATOM     20  N   UNL     1       4.163   2.131  -1.803  0.00  0.00    +0.000 NA
ENDBRANCH  15  16
ENDBRANCH   1  15
TORSDOF 5
