REMARK  Name = Cephalexin
REMARK  7 active torsions:
REMARK  status: ('A' for Active; 'I' for Inactive)
REMARK    1  A    between atoms: C_5  and  C_6
REMARK    2  A    between atoms: CA_7  and  C_23
REMARK    3  A    between atoms: CA_11  and  N_12
REMARK    4  A    between atoms: C_13  and  CA_15
REMARK    5  A    between atoms: CA_15  and  N_16
REMARK    6  A    between atoms: CA_15  and  C_17
REMARK    7  A    between atoms: C_23  and  O_24
REMARK                            x       y       z     vdW  Elec       q    Type
REMARK                         _______ _______ _______ _____ _____    ______ ____
ROOT
ATOM      1  C   UNL     1       2.311  -4.815   5.469  0.00  0.00    +0.000 C 
ATOM      2  S   UNL     1       0.587  -4.991   4.945  0.00  0.00    +0.000 S 
ATOM      3  C   UNL     1      -0.035  -4.817   6.652  0.00  0.00    +0.000 C 
ATOM      4  C   UNL     1       0.633  -5.753   7.638  0.00  0.00    +0.000 C 
ATOM      5  C   UNL     1      -0.188  -5.921   8.904  0.00  0.00    +0.000 C 
ATOM      6  CA  UNL     1       1.832  -6.357   7.415  0.00  0.00    +0.000 C 
ATOM      7  N   UNL     1       2.603  -5.958   6.345  0.00  0.00    +0.000 N 
ATOM      8  C   UNL     1       3.364  -6.619   5.436  0.00  0.00    +0.000 C 
ATOM      9  O   UNL     1       3.735  -7.760   5.409  0.00  0.00    +0.000 OA
ATOM     10  CA  UNL     1       3.497  -5.311   4.569  0.00  0.00    +0.000 C 
ENDROOT
BRANCH  10  11
ATOM     11  N   UNL     1       3.390  -5.496   3.102  0.00  0.00    +0.000 N 
ATOM     12  C   UNL     1       3.644  -4.513   2.149  0.00  0.00    +0.000 C 
ATOM     13  O   UNL     1       4.145  -3.442   2.497  0.00  0.00    +0.000 OA
ATOM     14  H   UNL     1       3.284  -6.449   2.764  0.00  0.00    +0.000 HD
BRANCH  12  15
ATOM     15  CA  UNL     1       3.250  -4.837   0.624  0.00  0.00    +0.000 C 
BRANCH  15  16
ATOM     16  C   UNL     1       2.271  -5.993   0.432  0.00  0.00    +0.000 A 
ATOM     17  C   UNL     1       2.041  -6.609  -0.799  0.00  0.00    +0.000 A 
ATOM     18  C   UNL     1       1.029  -7.577  -0.899  0.00  0.00    +0.000 A 
ATOM     19  C   UNL     1       0.412  -8.097   0.243  0.00  0.00    +0.000 A 
ATOM     20  C   UNL     1       0.665  -7.527   1.467  0.00  0.00    +0.000 A 
ATOM     21  C   UNL     1       1.437  -6.387   1.485  0.00  0.00    +0.000 A 
ENDBRANCH  15  16
BRANCH  15  22
ATOM     22  N   UNL     1       2.658  -3.630   0.009  0.00  0.00    +0.000 NA
ATOM     23  H1  UNL     1       1.764  -3.447   0.463  0.00  0.00    +0.000 HD
ATOM     24  H2  UNL     1       2.436  -3.824  -0.966  0.00  0.00    +0.000 HD
ENDBRANCH  15  22
ENDBRANCH  12  15
ENDBRANCH  10  11
BRANCH   6  25
ATOM     25  C   UNL     1       2.331  -7.406   8.401  0.00  0.00    +0.000 C 
ATOM     26  OXT UNL     1       1.709  -7.764   9.391  0.00  0.00    +0.000 OA
BRANCH  25  27
ATOM     27  O   UNL     1       3.566  -7.899   8.182  0.00  0.00    +0.000 OA
ATOM     28  H   UNL     1       3.949  -7.749   7.298  0.00  0.00    +0.000 HD
ENDBRANCH  25  27
ENDBRANCH   6  25
TORSDOF 6
