REMARK  Name = Cephaloglycin
REMARK  10 active torsions:
REMARK  status: ('A' for Active; 'I' for Inactive)
REMARK    1  A    between atoms: C_5  and  C_6
REMARK    2  A    between atoms: C_6  and  O_7
REMARK    3  A    between atoms: O_7  and  C_8
REMARK    4  A    between atoms: C_8  and  C_9
REMARK    5  A    between atoms: CA_11  and  C_27
REMARK    6  A    between atoms: CA_15  and  N_16
REMARK    7  A    between atoms: C_17  and  CA_19
REMARK    8  A    between atoms: CA_19  and  N_20
REMARK    9  A    between atoms: CA_19  and  C_21
REMARK   10  A    between atoms: C_27  and  O_28
REMARK                            x       y       z     vdW  Elec       q    Type
REMARK                         _______ _______ _______ _____ _____    ______ ____
ROOT
ATOM      1  C   UNL     1       2.266  -5.129  -6.325  0.00  0.00    +0.000 C 
ATOM      2  S   UNL     1       3.960  -5.509  -6.802  0.00  0.00    +0.000 S 
ATOM      3  C   UNL     1       3.766  -4.770  -8.462  0.00  0.00    +0.000 C 
ATOM      4  C   UNL     1       2.578  -5.321  -9.225  0.00  0.00    +0.000 C 
ATOM      5  CA  UNL     1       1.473  -5.840  -8.615  0.00  0.00    +0.000 C 
ATOM      6  N   UNL     1       1.338  -5.785  -7.246  0.00  0.00    +0.000 N 
ATOM      7  C   UNL     1       0.918  -6.728  -6.360  0.00  0.00    +0.000 C 
ATOM      8  O   UNL     1       0.273  -7.724  -6.558  0.00  0.00    +0.000 OA
ATOM      9  CA  UNL     1       1.623  -5.976  -5.187  0.00  0.00    +0.000 C 
ENDROOT
BRANCH   9  10
ATOM     10  N   UNL     1       2.441  -6.822  -4.254  0.00  0.00    +0.000 N 
ATOM     11  C   UNL     1       1.773  -7.401  -3.171  0.00  0.00    +0.000 C 
ATOM     12  O   UNL     1       0.544  -7.319  -3.094  0.00  0.00    +0.000 OA
ATOM     13  H   UNL     1       3.449  -6.707  -4.197  0.00  0.00    +0.000 HD
BRANCH  11  14
ATOM     14  CA  UNL     1       2.658  -7.993  -2.016  0.00  0.00    +0.000 C 
BRANCH  14  15
ATOM     15  C   UNL     1       3.420  -6.907  -1.260  0.00  0.00    +0.000 A 
ATOM     16  C   UNL     1       4.258  -7.228  -0.178  0.00  0.00    +0.000 A 
ATOM     17  C   UNL     1       4.771  -6.214   0.638  0.00  0.00    +0.000 A 
ATOM     18  C   UNL     1       4.562  -4.874   0.314  0.00  0.00    +0.000 A 
ATOM     19  C   UNL     1       3.794  -4.541  -0.790  0.00  0.00    +0.000 A 
ATOM     20  C   UNL     1       3.216  -5.548  -1.550  0.00  0.00    +0.000 A 
ENDBRANCH  14  15
BRANCH  14  21
ATOM     21  N   UNL     1       1.767  -8.707  -1.071  0.00  0.00    +0.000 NA
ATOM     22  H1  UNL     1       1.115  -8.018  -0.683  0.00  0.00    +0.000 HD
ATOM     23  H2  UNL     1       2.294  -9.070  -0.283  0.00  0.00    +0.000 HD
ENDBRANCH  14  21
ENDBRANCH  11  14
ENDBRANCH   9  10
BRANCH   5  24
ATOM     24  C   UNL     1       0.366  -6.443  -9.477  0.00  0.00    +0.000 C 
ATOM     25  OXT UNL     1       0.416  -6.495 -10.700  0.00  0.00    +0.000 OA
BRANCH  24  26
ATOM     26  O   UNL     1      -0.756  -6.834  -8.847  0.00  0.00    +0.000 OA
ATOM     27  H   UNL     1      -0.681  -7.010  -7.887  0.00  0.00    +0.000 HD
ENDBRANCH  24  26
ENDBRANCH   5  24
BRANCH   4  28
ATOM     28  C   UNL     1       2.706  -5.281 -10.750  0.00  0.00    +0.000 C 
BRANCH  28  29
ATOM     29  O   UNL     1       3.931  -4.682 -11.199  0.00  0.00    +0.000 OA
BRANCH  29  30
ATOM     30  C   UNL     1       4.228  -4.589 -12.520  0.00  0.00    +0.000 C 
ATOM     31  C   UNL     1       3.232  -5.061 -13.548  0.00  0.00    +0.000 C 
ATOM     32  O   UNL     1       5.302  -4.107 -12.874  0.00  0.00    +0.000 OA
ENDBRANCH  29  30
ENDBRANCH  28  29
ENDBRANCH   4  28
TORSDOF 9
