REMARK  Name = Cerivastatin
REMARK  19 active torsions:
REMARK  status: ('A' for Active; 'I' for Inactive)
REMARK    1  A    between atoms: C_1  and  O_2
REMARK    2  A    between atoms: O_2  and  C_3
REMARK    3  A    between atoms: C_3  and  C_4
REMARK    4  A    between atoms: C_5  and  C_6
REMARK    5  A    between atoms: C_13  and  C_14
REMARK    6  A    between atoms: C_15  and  C_16
REMARK    7  A    between atoms: C_16  and  O_17
REMARK    8  A    between atoms: C_16  and  C_18
REMARK    9  A    between atoms: C_18  and  C_19
REMARK   10  A    between atoms: C_19  and  O_20
REMARK   11  A    between atoms: C_19  and  C_21
REMARK   12  A    between atoms: C_21  and  C_22
REMARK   13  A    between atoms: C_22  and  O_23
REMARK   14  A    between atoms: C_25  and  C_26
REMARK   15  A    between atoms: C_26  and  C_27
REMARK   16  A    between atoms: C_26  and  C_28
REMARK   17  A    between atoms: C_30  and  C_31
REMARK   18  A    between atoms: C_31  and  C_32
REMARK   19  A    between atoms: C_31  and  C_33
REMARK                            x       y       z     vdW  Elec       q    Type
REMARK                         _______ _______ _______ _____ _____    ______ ____
ROOT
ATOM      1  C   UNL     1       4.398  -0.165   1.365  0.00  0.00    +0.000 A 
ATOM      2  C   UNL     1       5.126   1.049   1.342  0.00  0.00    +0.000 A 
ATOM      3  C   UNL     1       6.547   1.056   1.399  0.00  0.00    +0.000 A 
ATOM      4  C   UNL     1       7.204  -0.199   1.408  0.00  0.00    +0.000 A 
ATOM      5  N   UNL     1       6.483  -1.375   1.402  0.00  0.00    +0.000 NA
ATOM      6  C   UNL     1       5.108  -1.373   1.379  0.00  0.00    +0.000 A 
ENDROOT
BRANCH   2   7
ATOM      7  C   UNL     1       4.338   2.304   1.263  0.00  0.00    +0.000 A 
ATOM      8  C   UNL     1       3.586   2.733   2.384  0.00  0.00    +0.000 A 
ATOM      9  C   UNL     1       2.890   3.931   2.356  0.00  0.00    +0.000 A 
ATOM     10  C   UNL     1       3.050   4.771   1.263  0.00  0.00    +0.000 A 
ATOM     11  F   UNL     1       2.503   5.991   1.296  0.00  0.00    +0.000 F 
ATOM     12  C   UNL     1       3.820   4.397   0.165  0.00  0.00    +0.000 A 
ATOM     13  C   UNL     1       4.410   3.135   0.130  0.00  0.00    +0.000 A 
ENDBRANCH   2   7
BRANCH   4  14
ATOM     14  C   UNL     1       8.739  -0.415   1.453  0.00  0.00    +0.000 C 
ATOM     15  C   UNL     1       9.234  -1.173   0.216  0.00  0.00    +0.000 C 
ATOM     16  C   UNL     1       9.632   0.819   1.533  0.00  0.00    +0.000 C 
ENDBRANCH   4  14
BRANCH   6  17
ATOM     17  C   UNL     1       4.459  -2.770   1.351  0.00  0.00    +0.000 C 
ATOM     18  C   UNL     1       4.840  -3.570   2.598  0.00  0.00    +0.000 C 
ATOM     19  C   UNL     1       2.935  -2.837   1.294  0.00  0.00    +0.000 C 
ENDBRANCH   6  17
BRANCH   3  20
ATOM     20  C   UNL     1       7.250   2.354   1.379  0.00  0.00    +0.000 C 
ATOM     21  C   UNL     1       6.859   3.599   1.635  0.00  0.00    +0.000 C 
BRANCH  21  22
ATOM     22  C   UNL     1       7.717   4.781   1.410  0.00  0.00    +0.000 C 
BRANCH  22  23
ATOM     23  O   UNL     1       8.496   4.618   0.231  0.00  0.00    +0.000 OA
ATOM     24  H   UNL     1       7.905   4.610  -0.540  0.00  0.00    +0.000 HD
ENDBRANCH  22  23
BRANCH  22  25
ATOM     25  C   UNL     1       6.783   5.975   1.311  0.00  0.00    +0.000 C 
BRANCH  25  26
ATOM     26  C   UNL     1       7.581   7.250   1.323  0.00  0.00    +0.000 C 
BRANCH  26  27
ATOM     27  O   UNL     1       8.437   7.334   0.185  0.00  0.00    +0.000 OA
ATOM     28  H   UNL     1       7.909   7.140  -0.613  0.00  0.00    +0.000 HD
ENDBRANCH  26  27
BRANCH  26  29
ATOM     29  C   UNL     1       6.678   8.458   1.302  0.00  0.00    +0.000 C 
BRANCH  29  30
ATOM     30  C   UNL     1       7.442   9.763   1.322  0.00  0.00    +0.000 C 
ATOM     31  O   UNL     1       6.875  10.831   1.311  0.00  0.00    +0.000 OA
BRANCH  30  32
ATOM     32  O   UNL     1       8.795   9.673   1.347  0.00  0.00    +0.000 OA
ATOM     33  H   UNL     1       9.161   8.780   1.151  0.00  0.00    +0.000 HD
ENDBRANCH  30  32
ENDBRANCH  29  30
ENDBRANCH  26  29
ENDBRANCH  25  26
ENDBRANCH  22  25
ENDBRANCH  21  22
ENDBRANCH   3  20
BRANCH   1  34
ATOM     34  C   UNL     1       2.900  -0.021   1.326  0.00  0.00    +0.000 C 
BRANCH  34  36
ATOM     35  C   UNL     1       1.022   0.057  -0.025  0.00  0.00    +0.000 C 
ATOM     36  O   UNL     1       2.441   0.108  -0.011  0.00  0.00    +0.000 OA
ENDBRANCH  34  36
ENDBRANCH   1  34
TORSDOF 14
