REMARK  Name = Ceritinib
REMARK  12 active torsions:
REMARK  status: ('A' for Active; 'I' for Inactive)
REMARK    1  A    between atoms: C_1  and  C_2
REMARK    2  A    between atoms: C_2  and  C_3
REMARK    3  A    between atoms: C_2  and  O_4
REMARK    4  A    between atoms: O_4  and  C_5
REMARK    5  A    between atoms: C_6  and  N_7
REMARK    6  A    between atoms: N_15  and  C_16
REMARK    7  A    between atoms: C_21  and  S_22
REMARK    8  A    between atoms: S_22  and  C_25
REMARK    9  A    between atoms: C_25  and  C_26
REMARK   10  A    between atoms: C_25  and  C_27
REMARK   11  A    between atoms: C_29  and  C_30
REMARK   12  A    between atoms: C_31  and  C_33
REMARK                            x       y       z     vdW  Elec       q    Type
REMARK                         _______ _______ _______ _____ _____    ______ ____
ROOT
ATOM      1  N   UNL     1       4.803  -0.996   1.741  0.00  0.00    +0.000 N 
ATOM      2  C   UNL     1       5.589  -0.499   2.742  0.00  0.00    +0.000 A 
ATOM      3  N   UNL     1       6.468   0.461   2.640  0.00  0.00    +0.000 NA
ATOM      4  C   UNL     1       7.370   0.580   3.685  0.00  0.00    +0.000 A 
ATOM      5  C   UNL     1       7.587  -0.342   4.642  0.00  0.00    +0.000 A 
ATOM      6 CL   UNL     1       8.799  -0.187   5.841  0.00  0.00    +0.000 Cl
ATOM      7  C   UNL     1       6.508  -1.390   4.768  0.00  0.00    +0.000 A 
ATOM      8  N   UNL     1       5.498  -1.271   3.846  0.00  0.00    +0.000 N 
ATOM      9  N   UNL     1       6.497  -2.237   5.768  0.00  0.00    +0.000 NA
ATOM     10  H   UNL     1       3.966  -1.515   1.948  0.00  0.00    +0.000 HD
ATOM     11  H   UNL     1       4.626  -1.751   3.996  0.00  0.00    +0.000 HD
ENDROOT
BRANCH   1  13
ATOM     12  C   UNL     1       4.345  -1.300  -0.665  0.00  0.00    +0.000 A 
ATOM     13  C   UNL     1       5.211  -1.183   0.417  0.00  0.00    +0.000 A 
ATOM     14  C   UNL     1       6.577  -1.304   0.224  0.00  0.00    +0.000 A 
ATOM     15  C   UNL     1       7.196  -1.719  -0.937  0.00  0.00    +0.000 A 
ATOM     16  C   UNL     1       8.710  -1.777  -0.629  0.00  0.00    +0.000 C 
ATOM     17  C   UNL     1       6.325  -1.984  -2.051  0.00  0.00    +0.000 A 
ATOM     18  C   UNL     1       4.901  -1.751  -1.882  0.00  0.00    +0.000 A 
BRANCH  17  19
ATOM     19  C   UNL     1       6.736  -2.496  -3.463  0.00  0.00    +0.000 C 
ATOM     20  C   UNL     1       7.378  -3.891  -3.452  0.00  0.00    +0.000 C 
ATOM     21  C   UNL     1       8.696  -3.836  -2.736  0.00  0.00    +0.000 C 
ATOM     22  N   UNL     1       9.567  -2.734  -3.207  0.00  0.00    +0.000 NA
ATOM     23  C   UNL     1       8.964  -1.415  -3.505  0.00  0.00    +0.000 C 
ATOM     24  C   UNL     1       7.638  -1.502  -4.205  0.00  0.00    +0.000 C 
ATOM     25  H   UNL     1       9.970  -3.056  -4.084  0.00  0.00    +0.000 HD
ENDBRANCH  17  19
BRANCH  12  26
ATOM     26  O   UNL     1       2.973  -1.171  -0.544  0.00  0.00    +0.000 OA
BRANCH  26  28
ATOM     27  C   UNL     1       0.897   0.042  -0.161  0.00  0.00    +0.000 C 
ATOM     28  C   UNL     1       2.427   0.111  -0.105  0.00  0.00    +0.000 C 
ATOM     29  C   UNL     1       2.695   0.474   1.349  0.00  0.00    +0.000 C 
ENDBRANCH  26  28
ENDBRANCH  12  26
ENDBRANCH   1  13
BRANCH   9  30
ATOM     30  C   UNL     1       5.378  -3.074   5.945  0.00  0.00    +0.000 A 
ATOM     31  C   UNL     1       5.070  -3.973   4.904  0.00  0.00    +0.000 A 
ATOM     32  C   UNL     1       3.889  -4.707   4.894  0.00  0.00    +0.000 A 
ATOM     33  C   UNL     1       3.069  -4.690   6.014  0.00  0.00    +0.000 A 
ATOM     34  C   UNL     1       3.415  -3.904   7.117  0.00  0.00    +0.000 A 
ATOM     35  C   UNL     1       4.528  -3.038   7.062  0.00  0.00    +0.000 A 
BRANCH  35  36
ATOM     36  S   UNL     1       4.662  -1.877   8.424  0.00  0.00    +0.000 S 
ATOM     37  O   UNL     1       3.406  -1.162   8.451  0.00  0.00    +0.000 OA
ATOM     38  O   UNL     1       5.066  -2.677   9.582  0.00  0.00    +0.000 OA
BRANCH  36  39
ATOM     39  C   UNL     1       5.937  -0.674   8.100  0.00  0.00    +0.000 C 
ATOM     40  C   UNL     1       5.508   0.258   6.971  0.00  0.00    +0.000 C 
ATOM     41  C   UNL     1       6.218   0.243   9.281  0.00  0.00    +0.000 C 
ENDBRANCH  36  39
ENDBRANCH  35  36
ENDBRANCH   9  30
TORSDOF 7
