REMARK  Name = Cetalkonium
REMARK  20 active torsions:
REMARK  status: ('A' for Active; 'I' for Inactive)
REMARK    1  A    between atoms: C_1  and  C_2
REMARK    2  A    between atoms: C_2  and  C_3
REMARK    3  A    between atoms: C_3  and  C_4
REMARK    4  A    between atoms: C_4  and  C_5
REMARK    5  A    between atoms: C_5  and  C_6
REMARK    6  A    between atoms: C_6  and  C_7
REMARK    7  A    between atoms: C_7  and  C_8
REMARK    8  A    between atoms: C_8  and  C_9
REMARK    9  A    between atoms: C_9  and  C_10
REMARK   10  A    between atoms: C_10  and  C_11
REMARK   11  A    between atoms: C_11  and  C_12
REMARK   12  A    between atoms: C_12  and  C_13
REMARK   13  A    between atoms: C_13  and  C_14
REMARK   14  A    between atoms: C_14  and  C_15
REMARK   15  A    between atoms: C_15  and  C_16
REMARK   16  A    between atoms: C_16  and  N_17
REMARK   17  A    between atoms: N_17  and  C_18
REMARK   18  A    between atoms: N_17  and  C_19
REMARK   19  A    between atoms: N_17  and  C_20
REMARK   20  A    between atoms: C_20  and  C_21
REMARK                            x       y       z     vdW  Elec       q    Type
REMARK                         _______ _______ _______ _____ _____    ______ ____
ROOT
ATOM      1  C   UNL     1      13.169  -5.243   6.797  0.00  0.00    +0.000 C 
ENDROOT
BRANCH   1   2
ATOM      2  C   UNL     1      14.686  -5.217   6.770  0.00  0.00    +0.000 C 
BRANCH   2   3
ATOM      3  C   UNL     1      15.176  -6.097   7.887  0.00  0.00    +0.000 C 
BRANCH   3   4
ATOM      4  C   UNL     1      16.695  -6.143   7.939  0.00  0.00    +0.000 C 
BRANCH   4   5
ATOM      5  N   UNL     1      17.170  -7.052   9.074  0.00  0.00    +0.000 N 
ATOM      6  C   UNL     1      16.684  -6.515  10.422  0.00  0.00    +0.000 C 
ATOM      7  C   UNL     1      16.626  -8.466   8.862  0.00  0.00    +0.000 C 
BRANCH   5   8
ATOM      8  C   UNL     1      18.737  -7.069   9.054  0.00  0.00    +0.000 C 
BRANCH   8   9
ATOM      9  C   UNL     1      19.314  -7.927  10.156  0.00  0.00    +0.000 A 
ATOM     10  C   UNL     1      19.289  -9.327  10.026  0.00  0.00    +0.000 A 
ATOM     11  C   UNL     1      19.350 -10.127  11.165  0.00  0.00    +0.000 A 
ATOM     12  C   UNL     1      19.579  -9.552  12.406  0.00  0.00    +0.000 A 
ATOM     13  C   UNL     1      19.749  -8.171  12.524  0.00  0.00    +0.000 A 
ATOM     14  C   UNL     1      19.616  -7.359  11.398  0.00  0.00    +0.000 A 
ENDBRANCH   8   9
ENDBRANCH   5   8
ENDBRANCH   4   5
ENDBRANCH   3   4
ENDBRANCH   2   3
ENDBRANCH   1   2
BRANCH   1  15
ATOM     15  C   UNL     1      12.644  -4.368   5.686  0.00  0.00    +0.000 C 
BRANCH  15  16
ATOM     16  C   UNL     1      11.131  -4.379   5.699  0.00  0.00    +0.000 C 
BRANCH  16  17
ATOM     17  C   UNL     1      10.622  -3.496   4.580  0.00  0.00    +0.000 C 
BRANCH  17  18
ATOM     18  C   UNL     1       9.108  -3.495   4.579  0.00  0.00    +0.000 C 
BRANCH  18  19
ATOM     19  C   UNL     1       8.600  -2.610   3.458  0.00  0.00    +0.000 C 
BRANCH  19  20
ATOM     20  C   UNL     1       7.084  -2.607   3.454  0.00  0.00    +0.000 C 
BRANCH  20  21
ATOM     21  C   UNL     1       6.573  -1.721   2.332  0.00  0.00    +0.000 C 
BRANCH  21  22
ATOM     22  C   UNL     1       5.055  -1.716   2.326  0.00  0.00    +0.000 C 
BRANCH  22  23
ATOM     23  C   UNL     1       4.541  -0.830   1.203  0.00  0.00    +0.000 C 
BRANCH  23  24
ATOM     24  C   UNL     1       3.020  -0.823   1.195  0.00  0.00    +0.000 C 
BRANCH  24  26
ATOM     25  C   UNL     1       0.978   0.068   0.066  0.00  0.00    +0.000 C 
ATOM     26  C   UNL     1       2.494   0.062   0.073  0.00  0.00    +0.000 C 
ENDBRANCH  24  26
ENDBRANCH  23  24
ENDBRANCH  22  23
ENDBRANCH  21  22
ENDBRANCH  20  21
ENDBRANCH  19  20
ENDBRANCH  18  19
ENDBRANCH  17  18
ENDBRANCH  16  17
ENDBRANCH  15  16
ENDBRANCH   1  15
TORSDOF 17
