REMARK  Name = Cetirizine
REMARK  9 active torsions:
REMARK  status: ('A' for Active; 'I' for Inactive)
REMARK    1  A    between atoms: O_1  and  C_2
REMARK    2  A    between atoms: C_2  and  C_4
REMARK    3  A    between atoms: C_4  and  O_5
REMARK    4  A    between atoms: O_5  and  C_6
REMARK    5  A    between atoms: C_6  and  C_7
REMARK    6  A    between atoms: C_7  and  N_8
REMARK    7  A    between atoms: N_11  and  C_14
REMARK    8  A    between atoms: C_14  and  C_15
REMARK    9  A    between atoms: C_14  and  C_21
REMARK                            x       y       z     vdW  Elec       q    Type
REMARK                         _______ _______ _______ _____ _____    ______ ____
ROOT
ATOM      1  N   UNL     1       7.774   3.186  -0.042  0.00  0.00    +0.000 NA
ATOM      2  C   UNL     1       8.099   3.403  -1.449  0.00  0.00    +0.000 C 
ATOM      3  C   UNL     1       7.516   4.696  -2.048  0.00  0.00    +0.000 C 
ATOM      4  N   UNL     1       7.879   5.909  -1.269  0.00  0.00    +0.000 NA
ATOM      5  C   UNL     1       7.276   5.680   0.066  0.00  0.00    +0.000 C 
ATOM      6  C   UNL     1       7.812   4.398   0.778  0.00  0.00    +0.000 C 
ENDROOT
BRANCH   1   7
ATOM      7  C   UNL     1       6.810   2.118   0.157  0.00  0.00    +0.000 C 
BRANCH   7   8
ATOM      8  C   UNL     1       5.315   2.444   0.097  0.00  0.00    +0.000 C 
BRANCH   8   9
ATOM      9  O   UNL     1       4.602   1.205   0.043  0.00  0.00    +0.000 OA
BRANCH   9  10
ATOM     10  C   UNL     1       3.189   1.366   0.017  0.00  0.00    +0.000 C 
BRANCH  10  11
ATOM     11  C   UNL     1       2.475   0.014  -0.033  0.00  0.00    +0.000 C 
ATOM     12  O   UNL     1       3.036  -1.080  -0.070  0.00  0.00    +0.000 OA
BRANCH  11  13
ATOM     13  O   UNL     1       1.123   0.102  -0.033  0.00  0.00    +0.000 OA
ATOM     14  H   UNL     1       0.752   1.003  -0.003  0.00  0.00    +0.000 HD
ENDBRANCH  11  13
ENDBRANCH  10  11
ENDBRANCH   9  10
ENDBRANCH   8   9
ENDBRANCH   7   8
ENDBRANCH   1   7
BRANCH   4  15
ATOM     15  C   UNL     1       9.377   6.076  -1.263  0.00  0.00    +0.000 C 
BRANCH  15  16
ATOM     16  C   UNL     1       9.925   7.260  -0.430  0.00  0.00    +0.000 A 
ATOM     17  C   UNL     1      10.823   8.205  -0.959  0.00  0.00    +0.000 A 
ATOM     18  C   UNL     1      11.432   9.163  -0.149  0.00  0.00    +0.000 A 
ATOM     19  C   UNL     1      11.065   9.276   1.185  0.00  0.00    +0.000 A 
ATOM     20 CL   UNL     1      11.730  10.516   2.163  0.00  0.00    +0.000 Cl
ATOM     21  C   UNL     1      10.176   8.374   1.738  0.00  0.00    +0.000 A 
ATOM     22  C   UNL     1       9.682   7.343   0.951  0.00  0.00    +0.000 A 
ENDBRANCH  15  16
BRANCH  15  23
ATOM     23  C   UNL     1       9.896   6.111  -2.711  0.00  0.00    +0.000 A 
ATOM     24  C   UNL     1      10.836   5.179  -3.181  0.00  0.00    +0.000 A 
ATOM     25  C   UNL     1      11.412   5.352  -4.438  0.00  0.00    +0.000 A 
ATOM     26  C   UNL     1      11.006   6.410  -5.254  0.00  0.00    +0.000 A 
ATOM     27  C   UNL     1      10.028   7.302  -4.819  0.00  0.00    +0.000 A 
ATOM     28  C   UNL     1       9.458   7.139  -3.565  0.00  0.00    +0.000 A 
ENDBRANCH  15  23
ENDBRANCH   4  15
TORSDOF 9
