REMARK  Name = Cetrimonium
REMARK  19 active torsions:
REMARK  status: ('A' for Active; 'I' for Inactive)
REMARK    1  A    between atoms: C_1  and  C_2
REMARK    2  A    between atoms: C_2  and  C_3
REMARK    3  A    between atoms: C_3  and  C_4
REMARK    4  A    between atoms: C_4  and  C_5
REMARK    5  A    between atoms: C_5  and  C_6
REMARK    6  A    between atoms: C_6  and  C_7
REMARK    7  A    between atoms: C_7  and  C_8
REMARK    8  A    between atoms: C_8  and  C_9
REMARK    9  A    between atoms: C_9  and  C_10
REMARK   10  A    between atoms: C_10  and  C_11
REMARK   11  A    between atoms: C_11  and  C_12
REMARK   12  A    between atoms: C_12  and  C_13
REMARK   13  A    between atoms: C_13  and  C_14
REMARK   14  A    between atoms: C_14  and  C_15
REMARK   15  A    between atoms: C_15  and  C_16
REMARK   16  A    between atoms: C_16  and  N_17
REMARK   17  A    between atoms: N_17  and  C_18
REMARK   18  A    between atoms: N_17  and  C_19
REMARK   19  A    between atoms: N_17  and  C_20
REMARK                            x       y       z     vdW  Elec       q    Type
REMARK                         _______ _______ _______ _____ _____    ______ ____
ROOT
ATOM      1  C   UNL     1      10.566   3.866   4.206  0.00  0.00    +0.000 C 
ENDROOT
BRANCH   1   2
ATOM      2  C   UNL     1       9.050   3.866   4.206  0.00  0.00    +0.000 C 
BRANCH   2   3
ATOM      3  C   UNL     1       8.542   2.915   3.139  0.00  0.00    +0.000 C 
BRANCH   3   4
ATOM      4  C   UNL     1       7.024   2.911   3.135  0.00  0.00    +0.000 C 
BRANCH   4   5
ATOM      5  C   UNL     1       6.514   1.959   2.067  0.00  0.00    +0.000 C 
BRANCH   5   6
ATOM      6  C   UNL     1       4.994   1.953   2.061  0.00  0.00    +0.000 C 
BRANCH   6   7
ATOM      7  C   UNL     1       4.479   1.001   0.992  0.00  0.00    +0.000 C 
BRANCH   7   8
ATOM      8  C   UNL     1       2.957   0.993   0.984  0.00  0.00    +0.000 C 
BRANCH   8  10
ATOM      9  C   UNL     1       0.911   0.036  -0.090  0.00  0.00    +0.000 C 
ATOM     10  C   UNL     1       2.429   0.042  -0.083  0.00  0.00    +0.000 C 
ENDBRANCH   8  10
ENDBRANCH   7   8
ENDBRANCH   6   7
ENDBRANCH   5   6
ENDBRANCH   4   5
ENDBRANCH   3   4
ENDBRANCH   2   3
ENDBRANCH   1   2
BRANCH   1  11
ATOM     11  C   UNL     1      11.078   4.816   5.271  0.00  0.00    +0.000 C 
BRANCH  11  12
ATOM     12  C   UNL     1      12.594   4.804   5.258  0.00  0.00    +0.000 C 
BRANCH  12  13
ATOM     13  C   UNL     1      13.118   5.749   6.318  0.00  0.00    +0.000 C 
BRANCH  13  14
ATOM     14  C   UNL     1      14.638   5.738   6.305  0.00  0.00    +0.000 C 
BRANCH  14  15
ATOM     15  C   UNL     1      15.128   6.693   7.376  0.00  0.00    +0.000 C 
BRANCH  15  16
ATOM     16  C   UNL     1      16.648   6.731   7.419  0.00  0.00    +0.000 C 
BRANCH  16  17
ATOM     17  N   UNL     1      17.161   7.694   8.499  0.00  0.00    +0.000 N 
ATOM     18  C   UNL     1      16.704   9.123   8.224  0.00  0.00    +0.000 C 
ATOM     19  C   UNL     1      16.704   7.258   9.887  0.00  0.00    +0.000 C 
ATOM     20  C   UNL     1      18.689   7.664   8.465  0.00  0.00    +0.000 C 
ENDBRANCH  16  17
ENDBRANCH  15  16
ENDBRANCH  14  15
ENDBRANCH  13  14
ENDBRANCH  12  13
ENDBRANCH  11  12
ENDBRANCH   1  11
TORSDOF 15
