REMARK  Name = Cetyl alcohol
REMARK  16 active torsions:
REMARK  status: ('A' for Active; 'I' for Inactive)
REMARK    1  A    between atoms: C_1  and  C_2
REMARK    2  A    between atoms: C_2  and  C_3
REMARK    3  A    between atoms: C_3  and  C_4
REMARK    4  A    between atoms: C_4  and  C_5
REMARK    5  A    between atoms: C_5  and  C_6
REMARK    6  A    between atoms: C_6  and  C_7
REMARK    7  A    between atoms: C_7  and  C_8
REMARK    8  A    between atoms: C_8  and  C_9
REMARK    9  A    between atoms: C_9  and  C_10
REMARK   10  A    between atoms: C_10  and  C_11
REMARK   11  A    between atoms: C_11  and  C_12
REMARK   12  A    between atoms: C_12  and  C_13
REMARK   13  A    between atoms: C_13  and  C_14
REMARK   14  A    between atoms: C_14  and  C_15
REMARK   15  A    between atoms: C_15  and  C_16
REMARK   16  A    between atoms: C_16  and  O_17
REMARK                            x       y       z     vdW  Elec       q    Type
REMARK                         _______ _______ _______ _____ _____    ______ ____
ROOT
ATOM      1  C   UNL     1       9.090  -4.174   3.889  0.00  0.00    +0.000 C 
ENDROOT
BRANCH   1   2
ATOM      2  C   UNL     1       8.578  -3.112   2.932  0.00  0.00    +0.000 C 
BRANCH   2   3
ATOM      3  C   UNL     1       7.059  -3.107   2.927  0.00  0.00    +0.000 C 
BRANCH   3   4
ATOM      4  C   UNL     1       6.546  -2.045   1.970  0.00  0.00    +0.000 C 
BRANCH   4   5
ATOM      5  C   UNL     1       5.027  -2.037   1.963  0.00  0.00    +0.000 C 
BRANCH   5   6
ATOM      6  C   UNL     1       4.511  -0.974   1.005  0.00  0.00    +0.000 C 
BRANCH   6   7
ATOM      7  C   UNL     1       2.989  -0.965   0.997  0.00  0.00    +0.000 C 
BRANCH   7   9
ATOM      8  C   UNL     1       0.944   0.103   0.034  0.00  0.00    +0.000 C 
ATOM      9  C   UNL     1       2.461   0.096   0.041  0.00  0.00    +0.000 C 
ENDBRANCH   7   9
ENDBRANCH   6   7
ENDBRANCH   5   6
ENDBRANCH   4   5
ENDBRANCH   3   4
ENDBRANCH   2   3
ENDBRANCH   1   2
BRANCH   1  10
ATOM     10  C   UNL     1      10.609  -4.179   3.894  0.00  0.00    +0.000 C 
BRANCH  10  11
ATOM     11  C   UNL     1      11.122  -5.241   4.851  0.00  0.00    +0.000 C 
BRANCH  11  12
ATOM     12  C   UNL     1      12.641  -5.249   4.857  0.00  0.00    +0.000 C 
BRANCH  12  13
ATOM     13  C   UNL     1      13.158  -6.311   5.815  0.00  0.00    +0.000 C 
BRANCH  13  14
ATOM     14  C   UNL     1      14.679  -6.319   5.822  0.00  0.00    +0.000 C 
BRANCH  14  15
ATOM     15  C   UNL     1      15.207  -7.379   6.778  0.00  0.00    +0.000 C 
BRANCH  15  16
ATOM     16  C   UNL     1      16.727  -7.387   6.788  0.00  0.00    +0.000 C 
BRANCH  16  17
ATOM     17  O   UNL     1      17.194  -8.386   7.683  0.00  0.00    +0.000 OA
ATOM     18  H   UNL     1      16.842  -8.177   8.561  0.00  0.00    +0.000 HD
ENDBRANCH  16  17
ENDBRANCH  15  16
ENDBRANCH  14  15
ENDBRANCH  13  14
ENDBRANCH  12  13
ENDBRANCH  11  12
ENDBRANCH  10  11
ENDBRANCH   1  10
TORSDOF 15
