REMARK  Name = Cetylpyridinium
REMARK  16 active torsions:
REMARK  status: ('A' for Active; 'I' for Inactive)
REMARK    1  A    between atoms: C_1  and  C_2
REMARK    2  A    between atoms: C_2  and  C_3
REMARK    3  A    between atoms: C_3  and  C_4
REMARK    4  A    between atoms: C_4  and  C_5
REMARK    5  A    between atoms: C_5  and  C_6
REMARK    6  A    between atoms: C_6  and  C_7
REMARK    7  A    between atoms: C_7  and  C_8
REMARK    8  A    between atoms: C_8  and  C_9
REMARK    9  A    between atoms: C_9  and  C_10
REMARK   10  A    between atoms: C_10  and  C_11
REMARK   11  A    between atoms: C_11  and  C_12
REMARK   12  A    between atoms: C_12  and  C_13
REMARK   13  A    between atoms: C_13  and  C_14
REMARK   14  A    between atoms: C_14  and  C_15
REMARK   15  A    between atoms: C_15  and  C_16
REMARK   16  A    between atoms: C_16  and  N_17
REMARK                            x       y       z     vdW  Elec       q    Type
REMARK                         _______ _______ _______ _____ _____    ______ ____
ROOT
ATOM      1  C   UNL     1      11.204   4.087  -5.975  0.00  0.00    +0.000 C 
ENDROOT
BRANCH   1   2
ATOM      2  C   UNL     1      10.692   3.284  -4.792  0.00  0.00    +0.000 C 
BRANCH   2   3
ATOM      3  C   UNL     1       9.174   3.280  -4.787  0.00  0.00    +0.000 C 
BRANCH   3   4
ATOM      4  C   UNL     1       8.662   2.478  -3.605  0.00  0.00    +0.000 C 
BRANCH   4   5
ATOM      5  C   UNL     1       7.145   2.474  -3.600  0.00  0.00    +0.000 C 
BRANCH   5   6
ATOM      6  C   UNL     1       6.633   1.671  -2.417  0.00  0.00    +0.000 C 
BRANCH   6   7
ATOM      7  C   UNL     1       5.114   1.666  -2.410  0.00  0.00    +0.000 C 
BRANCH   7   8
ATOM      8  C   UNL     1       4.600   0.863  -1.227  0.00  0.00    +0.000 C 
BRANCH   8   9
ATOM      9  C   UNL     1       3.080   0.857  -1.218  0.00  0.00    +0.000 C 
BRANCH   9  11
ATOM     10  C   UNL     1       1.038   0.049  -0.029  0.00  0.00    +0.000 C 
ATOM     11  C   UNL     1       2.554   0.054  -0.036  0.00  0.00    +0.000 C 
ENDBRANCH   9  11
ENDBRANCH   8   9
ENDBRANCH   7   8
ENDBRANCH   6   7
ENDBRANCH   5   6
ENDBRANCH   4   5
ENDBRANCH   3   4
ENDBRANCH   2   3
ENDBRANCH   1   2
BRANCH   1  12
ATOM     12  C   UNL     1      12.723   4.090  -5.981  0.00  0.00    +0.000 C 
BRANCH  12  13
ATOM     13  C   UNL     1      13.241   4.893  -7.163  0.00  0.00    +0.000 C 
BRANCH  13  14
ATOM     14  C   UNL     1      14.763   4.895  -7.167  0.00  0.00    +0.000 C 
BRANCH  14  15
ATOM     15  C   UNL     1      15.289   5.698  -8.344  0.00  0.00    +0.000 C 
BRANCH  15  16
ATOM     16  C   UNL     1      16.814   5.722  -8.350  0.00  0.00    +0.000 C 
BRANCH  16  17
ATOM     17  N   UNL     1      17.245   6.532  -9.510  0.00  0.00    +0.000 N 
ATOM     18  C   UNL     1      17.206   7.884  -9.419  0.00  0.00    +0.000 A 
ATOM     19  C   UNL     1      17.327   8.664 -10.559  0.00  0.00    +0.000 A 
ATOM     20  C   UNL     1      17.604   8.054 -11.774  0.00  0.00    +0.000 A 
ATOM     21  C   UNL     1      17.782   6.676 -11.823  0.00  0.00    +0.000 A 
ATOM     22  C   UNL     1      17.562   5.926 -10.674  0.00  0.00    +0.000 A 
ENDBRANCH  16  17
ENDBRANCH  15  16
ENDBRANCH  14  15
ENDBRANCH  13  14
ENDBRANCH  12  13
ENDBRANCH   1  12
TORSDOF 15
