REMARK  Name = Cevimeline
REMARK  1 active torsions:
REMARK  status: ('A' for Active; 'I' for Inactive)
REMARK    1  A    between atoms: C_1  and  C_2
REMARK                            x       y       z     vdW  Elec       q    Type
REMARK                         _______ _______ _______ _____ _____    ______ ____
ROOT
ATOM      1  C   UNL     1       0.897  -0.124   0.215  0.00  0.00    +0.000 C 
ATOM      2  C   UNL     1       2.423  -0.116   0.085  0.00  0.00    +0.000 C 
ATOM      3  O   UNL     1       3.118  -1.422   0.246  0.00  0.00    +0.000 OA
ATOM      4  C   UNL     1       4.396  -1.377  -0.496  0.00  0.00    +0.000 C 
ATOM      5  C   UNL     1       3.913  -0.726  -1.837  0.00  0.00    +0.000 C 
ATOM      6  S   UNL     1       2.636   0.451  -1.590  0.00  0.00    +0.000 S 
ATOM      7  C   UNL     1       5.483  -0.789   0.494  0.00  0.00    +0.000 C 
ATOM      8  N   UNL     1       6.860  -1.204   0.101  0.00  0.00    +0.000 NA
ATOM      9  C   UNL     1       7.030  -2.704   0.388  0.00  0.00    +0.000 C 
ATOM     10  C   UNL     1       6.029  -3.617  -0.363  0.00  0.00    +0.000 C 
ATOM     11  C   UNL     1       5.180  -2.679  -1.164  0.00  0.00    +0.000 C 
ATOM     12  C   UNL     1       6.473  -2.122  -2.104  0.00  0.00    +0.000 C 
ATOM     13  C   UNL     1       6.908  -0.836  -1.345  0.00  0.00    +0.000 C 
ENDROOT
TORSDOF 0
