REMARK  Name = Chenodeoxycholic acid
REMARK  10 active torsions:
REMARK  status: ('A' for Active; 'I' for Inactive)
REMARK    1  A    between atoms: C_2  and  C_27
REMARK    2  A    between atoms: C_9  and  O_10
REMARK    3  A    between atoms: C_15  and  O_16
REMARK    4  A    between atoms: C_19  and  C_20
REMARK    5  A    between atoms: C_25  and  C_26
REMARK    6  A    between atoms: C_27  and  C_28
REMARK    7  A    between atoms: C_27  and  C_29
REMARK    8  A    between atoms: C_29  and  C_30
REMARK    9  A    between atoms: C_30  and  C_31
REMARK   10  A    between atoms: C_31  and  O_32
REMARK                            x       y       z     vdW  Elec       q    Type
REMARK                         _______ _______ _______ _____ _____    ______ ____
ROOT
ATOM      1  C   UNL     1       3.367  -0.034   0.778  0.00  0.00    +0.000 C 
ATOM      2  C   UNL     1       3.286   1.375   0.409  0.00  0.00    +0.000 C 
ATOM      3  C   UNL     1       3.910   1.095  -0.941  0.00  0.00    +0.000 C 
ATOM      4  C   UNL     1       5.235   1.582  -0.642  0.00  0.00    +0.000 C 
ATOM      5  C   UNL     1       6.150   1.680  -1.870  0.00  0.00    +0.000 C 
ATOM      6  C   UNL     1       5.276   2.428  -2.877  0.00  0.00    +0.000 C 
ATOM      7  C   UNL     1       6.041   2.631  -4.072  0.00  0.00    +0.000 C 
ATOM      8  C   UNL     1       7.202   3.540  -3.769  0.00  0.00    +0.000 C 
ATOM      9  C   UNL     1       7.778   3.627  -5.049  0.00  0.00    +0.000 C 
ATOM     10  C   UNL     1       7.656   3.622  -6.460  0.00  0.00    +0.000 C 
ATOM     11  C   UNL     1       9.088   2.718  -6.240  0.00  0.00    +0.000 C 
ATOM     12  C   UNL     1       9.223   1.930  -4.444  0.00  0.00    +0.000 C 
ATOM     13  C   UNL     1       8.393   2.829  -3.032  0.00  0.00    +0.000 C 
ATOM     14  C   UNL     1       9.535   3.785  -2.566  0.00  0.00    +0.000 C 
ATOM     15  C   UNL     1       7.484   2.460  -1.661  0.00  0.00    +0.000 C 
ATOM     16  C   UNL     1       8.021   1.891  -0.363  0.00  0.00    +0.000 C 
ATOM     17  C   UNL     1       6.750   1.801   0.843  0.00  0.00    +0.000 C 
ATOM     18  C   UNL     1       5.368   0.550   0.553  0.00  0.00    +0.000 C 
ATOM     19  C   UNL     1       6.418  -0.354   1.322  0.00  0.00    +0.000 C 
ENDROOT
BRANCH   6  20
ATOM     20  O   UNL     1       4.199   1.679  -3.411  0.00  0.00    +0.000 OA
ATOM     21  H   UNL     1       4.507   0.761  -3.488  0.00  0.00    +0.000 HD
ENDBRANCH   6  20
BRANCH  10  22
ATOM     22  O   UNL     1       6.527   2.906  -6.936  0.00  0.00    +0.000 OA
ATOM     23  H   UNL     1       6.646   1.955  -6.771  0.00  0.00    +0.000 HD
ENDBRANCH  10  22
BRANCH   1  24
ATOM     24  C   UNL     1       1.463  -0.008   0.332  0.00  0.00    +0.000 C 
ATOM     25  C   UNL     1       0.462  -0.627   1.433  0.00  0.00    +0.000 C 
BRANCH  24  26
ATOM     26  C   UNL     1       0.531  -0.602  -1.052  0.00  0.00    +0.000 C 
BRANCH  26  27
ATOM     27  C   UNL     1       0.620  -2.112  -1.254  0.00  0.00    +0.000 C 
BRANCH  27  28
ATOM     28  C   UNL     1       0.043  -2.816  -2.477  0.00  0.00    +0.000 C 
ATOM     29  O   UNL     1       0.289  -4.000  -2.687  0.00  0.00    +0.000 OA
BRANCH  28  30
ATOM     30  O   UNL     1      -0.772  -2.136  -3.299  0.00  0.00    +0.000 OA
ATOM     31  H   UNL     1      -0.965  -1.207  -3.089  0.00  0.00    +0.000 HD
ENDBRANCH  28  30
ENDBRANCH  27  28
ENDBRANCH  26  27
ENDBRANCH  24  26
ENDBRANCH   1  24
TORSDOF 7
