REMARK  Name = Chlorobutanol
REMARK  4 active torsions:
REMARK  status: ('A' for Active; 'I' for Inactive)
REMARK    1  A    between atoms: C_1  and  C_2
REMARK    2  A    between atoms: C_2  and  C_3
REMARK    3  A    between atoms: C_2  and  O_4
REMARK    4  A    between atoms: C_2  and  C_5
REMARK                            x       y       z     vdW  Elec       q    Type
REMARK                         _______ _______ _______ _____ _____    ______ ____
ROOT
ATOM      1  C   UNL     1       0.967  -0.057  -0.087  0.00  0.00    +0.000 C 
ATOM      2  C   UNL     1       2.506  -0.104  -0.047  0.00  0.00    +0.000 C 
ATOM      3  C   UNL     1       3.006  -0.727  -1.365  0.00  0.00    +0.000 C 
ENDROOT
BRANCH   2   4
ATOM      4  C   UNL     1       3.049  -0.873   1.222  0.00  0.00    +0.000 C 
ATOM      5 CL   UNL     1       2.485  -0.111   2.759  0.00  0.00    +0.000 Cl
ATOM      6 CL   UNL     1       2.502  -2.594   1.251  0.00  0.00    +0.000 Cl
ATOM      7 CL   UNL     1       4.853  -0.889   1.276  0.00  0.00    +0.000 Cl
ENDBRANCH   2   4
BRANCH   2   8
ATOM      8  O   UNL     1       2.961   1.269  -0.040  0.00  0.00    +0.000 OA
ATOM      9  H   UNL     1       2.614   1.720  -0.831  0.00  0.00    +0.000 HD
ENDBRANCH   2   8
TORSDOF 2
