REMARK  Name = Chlormezanone
REMARK  2 active torsions:
REMARK  status: ('A' for Active; 'I' for Inactive)
REMARK    1  A    between atoms: C_1  and  N_2
REMARK    2  A    between atoms: C_3  and  C_4
REMARK                            x       y       z     vdW  Elec       q    Type
REMARK                         _______ _______ _______ _____ _____    ______ ____
ROOT
ATOM      1  C   UNL     1       1.138   0.164   0.045  0.00  0.00    +0.000 C 
ATOM      2  N   UNL     1       2.594   0.067  -0.010  0.00  0.00    +0.000 N 
ATOM      3  C   UNL     1       3.300  -1.222  -0.049  0.00  0.00    +0.000 C 
ATOM      4  S   UNL     1       4.410  -1.396  -1.475  0.00  0.00    +0.000 S 
ATOM      5  O   UNL     1       3.673  -1.232  -2.710  0.00  0.00    +0.000 OA
ATOM      6  O   UNL     1       5.308  -2.522  -1.268  0.00  0.00    +0.000 OA
ATOM      7  C   UNL     1       5.329   0.082  -1.242  0.00  0.00    +0.000 C 
ATOM      8  C   UNL     1       4.382   1.264  -1.203  0.00  0.00    +0.000 C 
ATOM      9  C   UNL     1       3.364   1.223  -0.062  0.00  0.00    +0.000 C 
ATOM     10  O   UNL     1       3.162   2.200   0.652  0.00  0.00    +0.000 OA
ENDROOT
BRANCH   3  11
ATOM     11  C   UNL     1       2.458  -2.469  -0.057  0.00  0.00    +0.000 A 
ATOM     12  C   UNL     1       1.601  -2.724  -1.144  0.00  0.00    +0.000 A 
ATOM     13  C   UNL     1       0.828  -3.869  -1.190  0.00  0.00    +0.000 A 
ATOM     14  C   UNL     1       0.908  -4.777  -0.144  0.00  0.00    +0.000 A 
ATOM     15 CL   UNL     1      -0.097  -6.169  -0.173  0.00  0.00    +0.000 Cl
ATOM     16  C   UNL     1       1.777  -4.563   0.928  0.00  0.00    +0.000 A 
ATOM     17  C   UNL     1       2.557  -3.408   0.976  0.00  0.00    +0.000 A 
ENDBRANCH   3  11
TORSDOF 1
