REMARK  Name = Chlorothiazide
REMARK  2 active torsions:
REMARK  status: ('A' for Active; 'I' for Inactive)
REMARK    1  A    between atoms: N_1  and  S_2
REMARK    2  A    between atoms: S_2  and  C_5
REMARK                            x       y       z     vdW  Elec       q    Type
REMARK                         _______ _______ _______ _____ _____    ______ ____
ROOT
ATOM      1  C   UNL     1       3.271   1.744   0.414  0.00  0.00    +0.000 A 
ATOM      2  C   UNL     1       2.648   2.843  -0.184  0.00  0.00    +0.000 A 
ATOM      3 CL   UNL     1       1.373   2.733  -1.347  0.00  0.00    +0.000 Cl
ATOM      4  C   UNL     1       3.065   4.145   0.136  0.00  0.00    +0.000 A 
ATOM      5  C   UNL     1       4.112   4.378   1.032  0.00  0.00    +0.000 A 
ATOM      6  N   UNL     1       4.492   5.682   1.352  0.00  0.00    +0.000 N 
ATOM      7  C   UNL     1       5.401   5.956   2.329  0.00  0.00    +0.000 C 
ATOM      8  N   UNL     1       6.159   5.164   2.994  0.00  0.00    +0.000 NA
ATOM      9  S   UNL     1       6.161   3.585   2.624  0.00  0.00    +0.000 S 
ATOM     10  O   UNL     1       7.315   3.313   1.789  0.00  0.00    +0.000 OA
ATOM     11  O   UNL     1       5.926   2.830   3.838  0.00  0.00    +0.000 OA
ATOM     12  C   UNL     1       4.753   3.274   1.583  0.00  0.00    +0.000 A 
ATOM     13  C   UNL     1       4.342   1.957   1.302  0.00  0.00    +0.000 A 
ATOM     14  H   UNL     1       3.975   6.447   0.932  0.00  0.00    +0.000 HD
ENDROOT
BRANCH   1  15
ATOM     15  S   UNL     1       2.777   0.083   0.025  0.00  0.00    +0.000 S 
ATOM     16  O   UNL     1       3.180  -0.781   1.113  0.00  0.00    +0.000 OA
ATOM     17  O   UNL     1       3.152  -0.184  -1.341  0.00  0.00    +0.000 OA
BRANCH  15  18
ATOM     18  N   UNL     1       1.090   0.099   0.065  0.00  0.00    +0.000 NA
ATOM     19  H   UNL     1       0.742  -0.853  -0.083  0.00  0.00    +0.000 HD
ATOM     20  H   UNL     1       0.716   0.714  -0.663  0.00  0.00    +0.000 HD
ENDBRANCH  15  18
ENDBRANCH   1  15
TORSDOF 2
