REMARK  Name = Chlorhexidine
REMARK  9 active torsions:
REMARK  status: ('A' for Active; 'I' for Inactive)
REMARK    1  A    between atoms: C_5  and  N_6
REMARK    2  A    between atoms: N_12  and  C_13
REMARK    3  A    between atoms: C_13  and  C_14
REMARK    4  A    between atoms: C_14  and  C_15
REMARK    5  A    between atoms: C_15  and  C_16
REMARK    6  A    between atoms: C_16  and  C_17
REMARK    7  A    between atoms: C_17  and  C_18
REMARK    8  A    between atoms: C_18  and  N_19
REMARK    9  A    between atoms: N_25  and  C_26
REMARK                            x       y       z     vdW  Elec       q    Type
REMARK                         _______ _______ _______ _____ _____    ______ ____
ROOT
ATOM      1  C   UNL     1      11.247   4.872   0.227  0.00  0.00    +0.000 C 
ENDROOT
BRANCH   1   2
ATOM      2  C   UNL     1      10.481   3.534   0.211  0.00  0.00    +0.000 C 
BRANCH   2   3
ATOM      3  C   UNL     1       8.972   3.749   0.173  0.00  0.00    +0.000 C 
BRANCH   3  10
ATOM      4  N   UNL     1       3.889   0.228   0.043  0.00  0.00    +0.000 N 
ATOM      5  C   UNL     1       4.656   1.398   0.070  0.00  0.00    +0.000 C 
ATOM      6  N   UNL     1       4.210   2.606   0.083  0.00  0.00    +0.000 NA
ATOM      7  N   UNL     1       6.056   1.393   0.092  0.00  0.00    +0.000 N 
ATOM      8  C   UNL     1       6.848   2.552   0.118  0.00  0.00    +0.000 C 
ATOM      9  N   UNL     1       6.361   3.762   0.107  0.00  0.00    +0.000 NA
ATOM     10  N   UNL     1       8.211   2.483   0.154  0.00  0.00    +0.000 N 
ATOM     11  H   UNL     1       4.368  -0.664   0.067  0.00  0.00    +0.000 HD
ATOM     12  H   UNL     1       3.229   2.729   0.106  0.00  0.00    +0.000 HD
ATOM     13  H   UNL     1       6.546   0.517   0.115  0.00  0.00    +0.000 HD
ATOM     14  H   UNL     1       5.329   3.624   0.083  0.00  0.00    +0.000 HD
ATOM     15  H   UNL     1       8.718   1.616   0.169  0.00  0.00    +0.000 HD
BRANCH   4  20
ATOM     16 CL   UNL     1      -2.142  -0.209  -0.008  0.00  0.00    +0.000 Cl
ATOM     17  C   UNL     1      -0.428  -0.133  -0.007  0.00  0.00    +0.000 A 
ATOM     18  C   UNL     1       0.380  -1.267  -0.007  0.00  0.00    +0.000 A 
ATOM     19  C   UNL     1       1.804  -1.158   0.009  0.00  0.00    +0.000 A 
ATOM     20  C   UNL     1       2.451   0.098   0.012  0.00  0.00    +0.000 A 
ATOM     21  C   UNL     1       1.561   1.184  -0.026  0.00  0.00    +0.000 A 
ATOM     22  C   UNL     1       0.170   1.097  -0.017  0.00  0.00    +0.000 A 
ENDBRANCH   4  20
ENDBRANCH   3  10
ENDBRANCH   2   3
ENDBRANCH   1   2
BRANCH   1  23
ATOM     23  C   UNL     1      12.765   4.659   0.265  0.00  0.00    +0.000 C 
BRANCH  23  24
ATOM     24  C   UNL     1      13.546   5.993   0.282  0.00  0.00    +0.000 C 
BRANCH  24  25
ATOM     25  C   UNL     1      15.057   5.748   0.320  0.00  0.00    +0.000 C 
BRANCH  25  26
ATOM     26  N   UNL     1      15.889   6.966   0.338  0.00  0.00    +0.000 N 
ATOM     27  C   UNL     1      17.263   6.916   0.368  0.00  0.00    +0.000 C 
ATOM     28  N   UNL     1      17.885   5.774   0.384  0.00  0.00    +0.000 NA
ATOM     29  N   UNL     1      18.024   8.082   0.385  0.00  0.00    +0.000 N 
ATOM     30  C   UNL     1      19.421   8.163   0.427  0.00  0.00    +0.000 C 
ATOM     31  N   UNL     1      20.134   7.071   0.474  0.00  0.00    +0.000 NA
ATOM     32  N   UNL     1      20.066   9.390   0.435  0.00  0.00    +0.000 N 
ATOM     33  H   UNL     1      15.395   7.848   0.325  0.00  0.00    +0.000 HD
ATOM     34  H   UNL     1      17.240   4.992   0.374  0.00  0.00    +0.000 HD
ATOM     35  H   UNL     1      17.520   8.952   0.368  0.00  0.00    +0.000 HD
ATOM     36  H   UNL     1      19.451   6.289   0.451  0.00  0.00    +0.000 HD
ATOM     37  H   UNL     1      19.566  10.254   0.569  0.00  0.00    +0.000 HD
BRANCH  32  38
ATOM     38  C   UNL     1      21.492   9.519   0.417  0.00  0.00    +0.000 A 
ATOM     39  C   UNL     1      22.286   8.678  -0.388  0.00  0.00    +0.000 A 
ATOM     40  C   UNL     1      23.685   8.673  -0.323  0.00  0.00    +0.000 A 
ATOM     41  C   UNL     1      24.331   9.522   0.562  0.00  0.00    +0.000 A 
ATOM     42 CL   UNL     1      26.050   9.498   0.668  0.00  0.00    +0.000 Cl
ATOM     43  C   UNL     1      23.584  10.383   1.365  0.00  0.00    +0.000 A 
ATOM     44  C   UNL     1      22.173  10.382   1.294  0.00  0.00    +0.000 A 
ENDBRANCH  32  38
ENDBRANCH  25  26
ENDBRANCH  24  25
ENDBRANCH  23  24
ENDBRANCH   1  23
TORSDOF 9
