REMARK  Name = Chlorprothixene
REMARK  5 active torsions:
REMARK  status: ('A' for Active; 'I' for Inactive)
REMARK    1  A    between atoms: C_1  and  N_2
REMARK    2  A    between atoms: N_2  and  C_3
REMARK    3  A    between atoms: N_2  and  C_4
REMARK    4  A    between atoms: C_4  and  C_5
REMARK    5  A    between atoms: C_5  and  C_6
REMARK                            x       y       z     vdW  Elec       q    Type
REMARK                         _______ _______ _______ _____ _____    ______ ____
ROOT
ATOM      1  C   UNL     1       4.896  -0.131  -2.755  0.00  0.00    +0.000 C 
ATOM      2  C   UNL     1       6.247  -0.159  -2.954  0.00  0.00    +0.000 C 
ATOM      3  C   UNL     1       6.687  -0.228  -4.397  0.00  0.00    +0.000 A 
ATOM      4  C   UNL     1       5.768  -0.276  -5.475  0.00  0.00    +0.000 A 
ATOM      5  C   UNL     1       6.171  -0.328  -6.807  0.00  0.00    +0.000 A 
ATOM      6  C   UNL     1       7.517  -0.338  -7.114  0.00  0.00    +0.000 A 
ATOM      7  C   UNL     1       8.448  -0.300  -6.084  0.00  0.00    +0.000 A 
ATOM      8  C   UNL     1       8.050  -0.245  -4.736  0.00  0.00    +0.000 A 
ATOM      9  S   UNL     1       9.397  -0.199  -3.590  0.00  0.00    +0.000 S 
ATOM     10  C   UNL     1       8.618  -0.137  -2.005  0.00  0.00    +0.000 A 
ATOM     11  C   UNL     1       9.524  -0.096  -0.916  0.00  0.00    +0.000 A 
ATOM     12  C   UNL     1       9.096  -0.046   0.407  0.00  0.00    +0.000 A 
ATOM     13  C   UNL     1       7.750  -0.036   0.650  0.00  0.00    +0.000 A 
ATOM     14 CL   UNL     1       7.117   0.021   2.250  0.00  0.00    +0.000 Cl
ATOM     15  C   UNL     1       6.868  -0.072  -0.420  0.00  0.00    +0.000 A 
ATOM     16  C   UNL     1       7.234  -0.124  -1.786  0.00  0.00    +0.000 A 
ENDROOT
BRANCH   1  17
ATOM     17  C   UNL     1       4.213  -0.100  -1.449  0.00  0.00    +0.000 C 
BRANCH  17  18
ATOM     18  C   UNL     1       2.711  -0.147  -1.375  0.00  0.00    +0.000 C 
BRANCH  18  20
ATOM     19  C   UNL     1       0.860  -0.069   0.103  0.00  0.00    +0.000 C 
ATOM     20  N   UNL     1       2.314  -0.102   0.047  0.00  0.00    +0.000 NA
ATOM     21  C   UNL     1       2.825  -1.236   0.832  0.00  0.00    +0.000 C 
ENDBRANCH  18  20
ENDBRANCH  17  18
ENDBRANCH   1  17
TORSDOF 3
