REMARK  Name = Chlorphenesin
REMARK  6 active torsions:
REMARK  status: ('A' for Active; 'I' for Inactive)
REMARK    1  A    between atoms: O_1  and  C_2
REMARK    2  A    between atoms: C_2  and  C_3
REMARK    3  A    between atoms: C_3  and  O_4
REMARK    4  A    between atoms: C_3  and  C_5
REMARK    5  A    between atoms: C_5  and  O_6
REMARK    6  A    between atoms: O_6  and  C_7
REMARK                            x       y       z     vdW  Elec       q    Type
REMARK                         _______ _______ _______ _____ _____    ______ ____
ROOT
ATOM      1  O   UNL     1       4.868   2.875  -0.393  0.00  0.00    +0.000 OA
ENDROOT
BRANCH   1   2
ATOM      2  C   UNL     1       6.226   3.027  -0.415  0.00  0.00    +0.000 A 
ATOM      3  C   UNL     1       7.081   2.217  -1.166  0.00  0.00    +0.000 A 
ATOM      4  C   UNL     1       8.455   2.475  -1.178  0.00  0.00    +0.000 A 
ATOM      5  C   UNL     1       8.969   3.546  -0.451  0.00  0.00    +0.000 A 
ATOM      6 CL   UNL     1      10.662   3.851  -0.462  0.00  0.00    +0.000 Cl
ATOM      7  C   UNL     1       8.118   4.375   0.278  0.00  0.00    +0.000 A 
ATOM      8  C   UNL     1       6.744   4.117   0.287  0.00  0.00    +0.000 A 
ENDBRANCH   1   2
BRANCH   1   9
ATOM      9  C   UNL     1       4.412   1.526  -0.215  0.00  0.00    +0.000 C 
BRANCH   9  10
ATOM     10  C   UNL     1       2.874   1.513  -0.188  0.00  0.00    +0.000 C 
BRANCH  10  11
ATOM     11  O   UNL     1       2.394   2.345   0.880  0.00  0.00    +0.000 OA
ATOM     12  H   UNL     1       2.682   1.960   1.722  0.00  0.00    +0.000 HD
ENDBRANCH  10  11
BRANCH  10  13
ATOM     13  C   UNL     1       2.350   0.078  -0.017  0.00  0.00    +0.000 C 
BRANCH  13  14
ATOM     14  O   UNL     1       0.926   0.057  -0.050  0.00  0.00    +0.000 OA
ATOM     15  H   UNL     1       0.637  -0.855   0.116  0.00  0.00    +0.000 HD
ENDBRANCH  13  14
ENDBRANCH  10  13
ENDBRANCH   9  10
ENDBRANCH   1   9
TORSDOF 6
