REMARK  Name = Chlorpromazine
REMARK  6 active torsions:
REMARK  status: ('A' for Active; 'I' for Inactive)
REMARK    1  A    between atoms: C_1  and  N_2
REMARK    2  A    between atoms: N_2  and  C_3
REMARK    3  A    between atoms: N_2  and  C_4
REMARK    4  A    between atoms: C_4  and  C_5
REMARK    5  A    between atoms: C_5  and  C_6
REMARK    6  A    between atoms: C_6  and  N_7
REMARK                            x       y       z     vdW  Elec       q    Type
REMARK                         _______ _______ _______ _____ _____    ______ ____
ROOT
ATOM      1  N   UNL     1       6.471   1.661   2.198  0.00  0.00    +0.000 N 
ATOM      2  C   UNL     1       7.147   0.399   2.259  0.00  0.00    +0.000 A 
ATOM      3  C   UNL     1       6.461  -0.829   2.384  0.00  0.00    +0.000 A 
ATOM      4  C   UNL     1       7.083  -2.072   2.260  0.00  0.00    +0.000 A 
ATOM      5  C   UNL     1       8.461  -2.137   2.151  0.00  0.00    +0.000 A 
ATOM      6  C   UNL     1       9.186  -0.956   2.145  0.00  0.00    +0.000 A 
ATOM      7  C   UNL     1       8.548   0.297   2.175  0.00  0.00    +0.000 A 
ATOM      8  S   UNL     1       9.642   1.682   2.114  0.00  0.00    +0.000 S 
ATOM      9  C   UNL     1       8.520   3.051   2.143  0.00  0.00    +0.000 A 
ATOM     10  C   UNL     1       7.110   2.936   2.160  0.00  0.00    +0.000 A 
ATOM     11  C   UNL     1       6.405   4.160   2.156  0.00  0.00    +0.000 A 
ATOM     12  C   UNL     1       7.050   5.403   2.146  0.00  0.00    +0.000 A 
ATOM     13 CL   UNL     1       6.116   6.849   2.146  0.00  0.00    +0.000 Cl
ATOM     14  C   UNL     1       8.431   5.482   2.143  0.00  0.00    +0.000 A 
ATOM     15  C   UNL     1       9.160   4.305   2.141  0.00  0.00    +0.000 A 
ENDROOT
BRANCH   1  16
ATOM     16  C   UNL     1       4.988   1.601   2.174  0.00  0.00    +0.000 C 
BRANCH  16  17
ATOM     17  C   UNL     1       4.454   0.905   0.923  0.00  0.00    +0.000 C 
BRANCH  17  18
ATOM     18  C   UNL     1       2.930   0.853   0.942  0.00  0.00    +0.000 C 
BRANCH  18  20
ATOM     19  C   UNL     1       0.970  -0.041  -0.110  0.00  0.00    +0.000 C 
ATOM     20  N   UNL     1       2.430   0.002  -0.146  0.00  0.00    +0.000 NA
ATOM     21  C   UNL     1       2.892   0.468  -1.455  0.00  0.00    +0.000 C 
ENDBRANCH  18  20
ENDBRANCH  17  18
ENDBRANCH  16  17
ENDBRANCH   1  16
TORSDOF 4
