REMARK  Name = Chlorambucil
REMARK  10 active torsions:
REMARK  status: ('A' for Active; 'I' for Inactive)
REMARK    1  A    between atoms: O_1  and  C_2
REMARK    2  A    between atoms: C_2  and  C_4
REMARK    3  A    between atoms: C_4  and  C_5
REMARK    4  A    between atoms: C_5  and  C_6
REMARK    5  A    between atoms: C_6  and  C_7
REMARK    6  A    between atoms: C_10  and  N_13
REMARK    7  A    between atoms: N_13  and  C_14
REMARK    8  A    between atoms: N_13  and  C_17
REMARK    9  A    between atoms: C_14  and  C_15
REMARK   10  A    between atoms: C_17  and  C_18
REMARK                            x       y       z     vdW  Elec       q    Type
REMARK                         _______ _______ _______ _____ _____    ______ ____
ROOT
ATOM      1  C   UNL     1       6.883  -1.198  -1.641  0.00  0.00    +0.000 A 
ATOM      2  C   UNL     1       7.667  -2.304  -1.471  0.00  0.00    +0.000 A 
ATOM      3  C   UNL     1       8.972  -2.130  -1.047  0.00  0.00    +0.000 A 
ATOM      4  C   UNL     1       9.671  -0.914  -0.965  0.00  0.00    +0.000 A 
ATOM      5  C   UNL     1       8.845   0.196  -1.187  0.00  0.00    +0.000 A 
ATOM      6  C   UNL     1       7.481   0.059  -1.516  0.00  0.00    +0.000 A 
ENDROOT
BRANCH   1   7
ATOM      7  C   UNL     1       5.414  -1.413  -1.826  0.00  0.00    +0.000 C 
BRANCH   7   8
ATOM      8  C   UNL     1       4.651  -0.606  -0.790  0.00  0.00    +0.000 C 
BRANCH   8   9
ATOM      9  C   UNL     1       3.149  -0.765  -0.940  0.00  0.00    +0.000 C 
BRANCH   9  10
ATOM     10  C   UNL     1       2.454   0.116   0.068  0.00  0.00    +0.000 C 
ATOM     11  O   UNL     1       3.027   0.832   0.884  0.00  0.00    +0.000 OA
BRANCH  10  12
ATOM     12  O   UNL     1       1.110   0.060  -0.003  0.00  0.00    +0.000 OA
ATOM     13  H   UNL     1       0.761  -0.539  -0.689  0.00  0.00    +0.000 HD
ENDBRANCH  10  12
ENDBRANCH   9  10
ENDBRANCH   8   9
ENDBRANCH   7   8
ENDBRANCH   1   7
BRANCH   4  14
ATOM     14  N   UNL     1      11.037  -0.807  -0.675  0.00  0.00    +0.000 N 
BRANCH  14  15
ATOM     15  C   UNL     1      12.002  -1.949  -0.568  0.00  0.00    +0.000 C 
BRANCH  15  16
ATOM     16  C   UNL     1      11.454  -3.359  -0.573  0.00  0.00    +0.000 C 
ATOM     17 CL   UNL     1      12.647  -4.652  -0.410  0.00  0.00    +0.000 Cl
ENDBRANCH  15  16
ENDBRANCH  14  15
BRANCH  14  18
ATOM     18  C   UNL     1      11.659   0.562  -0.717  0.00  0.00    +0.000 C 
BRANCH  18  19
ATOM     19  C   UNL     1      13.183   0.584  -0.518  0.00  0.00    +0.000 C 
ATOM     20 CL   UNL     1      13.838   2.238  -0.513  0.00  0.00    +0.000 Cl
ENDBRANCH  18  19
ENDBRANCH  14  18
ENDBRANCH   4  14
TORSDOF 10
