REMARK  Name = Chloramphenicol succinate
REMARK  13 active torsions:
REMARK  status: ('A' for Active; 'I' for Inactive)
REMARK    1  A    between atoms: O_1  and  C_2
REMARK    2  A    between atoms: C_2  and  C_3
REMARK    3  A    between atoms: C_2  and  C_19
REMARK    4  A    between atoms: C_3  and  C_4
REMARK    5  A    between atoms: C_3  and  N_13
REMARK    6  A    between atoms: C_4  and  O_5
REMARK    7  A    between atoms: O_5  and  C_6
REMARK    8  A    between atoms: C_6  and  C_8
REMARK    9  A    between atoms: C_8  and  C_9
REMARK   10  A    between atoms: C_9  and  C_10
REMARK   11  A    between atoms: C_10  and  O_11
REMARK   12  A    between atoms: C_14  and  C_16
REMARK   13  A    between atoms: C_22  and  N_25
REMARK                            x       y       z     vdW  Elec       q    Type
REMARK                         _______ _______ _______ _____ _____    ______ ____
ROOT
ATOM      1  C   UNL     1       2.954  -1.346  -0.481  0.00  0.00    +0.000 C 
ENDROOT
BRANCH   1   2
ATOM      2  N   UNL     1       2.419  -2.444   0.370  0.00  0.00    +0.000 N 
ATOM      3  C   UNL     1       2.695  -3.771   0.042  0.00  0.00    +0.000 C 
ATOM      4  O   UNL     1       3.368  -4.030  -0.955  0.00  0.00    +0.000 OA
ATOM      5  H   UNL     1       1.821  -2.241   1.164  0.00  0.00    +0.000 HD
BRANCH   3   6
ATOM      6  C   UNL     1       2.184  -4.839   1.020  0.00  0.00    +0.000 C 
ATOM      7 CL   UNL     1       0.411  -4.788   1.057  0.00  0.00    +0.000 Cl
ATOM      8 CL   UNL     1       2.751  -6.453   0.543  0.00  0.00    +0.000 Cl
ENDBRANCH   3   6
ENDBRANCH   1   2
BRANCH   1   9
ATOM      9  C   UNL     1       2.336   0.046  -0.111  0.00  0.00    +0.000 C 
BRANCH   9  10
ATOM     10  C   UNL     1       2.648   1.207  -1.045  0.00  0.00    +0.000 A 
ATOM     11  C   UNL     1       3.365   1.060  -2.237  0.00  0.00    +0.000 A 
ATOM     12  C   UNL     1       3.906   2.151  -2.897  0.00  0.00    +0.000 A 
ATOM     13  C   UNL     1       3.478   3.421  -2.558  0.00  0.00    +0.000 A 
ATOM     14  C   UNL     1       2.594   3.603  -1.493  0.00  0.00    +0.000 A 
ATOM     15  C   UNL     1       2.219   2.499  -0.715  0.00  0.00    +0.000 A 
BRANCH  13  16
ATOM     16  N   UNL     1       3.872   4.518  -3.437  0.00  0.00    +0.000 N 
ATOM     17  O   UNL     1       4.749   4.276  -4.284  0.00  0.00    +0.000 OA
ATOM     18  O   UNL     1       3.297   5.603  -3.298  0.00  0.00    +0.000 OA
ENDBRANCH  13  16
ENDBRANCH   9  10
BRANCH   9  19
ATOM     19  O   UNL     1       0.904  -0.008  -0.075  0.00  0.00    +0.000 OA
ATOM     20  H   UNL     1       0.619  -0.689   0.551  0.00  0.00    +0.000 HD
ENDBRANCH   9  19
ENDBRANCH   1   9
BRANCH   1  21
ATOM     21  C   UNL     1       4.534  -1.352  -0.414  0.00  0.00    +0.000 C 
BRANCH  21  22
ATOM     22  O   UNL     1       5.148  -0.302  -1.183  0.00  0.00    +0.000 OA
BRANCH  22  23
ATOM     23  C   UNL     1       6.489  -0.239  -1.364  0.00  0.00    +0.000 C 
ATOM     24  O   UNL     1       7.289  -0.973  -0.832  0.00  0.00    +0.000 OA
BRANCH  23  25
ATOM     25  C   UNL     1       6.821   0.893  -2.341  0.00  0.00    +0.000 C 
BRANCH  25  26
ATOM     26  C   UNL     1       8.315   1.053  -2.490  0.00  0.00    +0.000 C 
BRANCH  26  27
ATOM     27  C   UNL     1       8.825   2.144  -3.402  0.00  0.00    +0.000 C 
ATOM     28  O   UNL     1      10.027   2.325  -3.550  0.00  0.00    +0.000 OA
BRANCH  27  29
ATOM     29  O   UNL     1       7.935   2.915  -4.047  0.00  0.00    +0.000 OA
ATOM     30  H   UNL     1       6.977   2.790  -3.940  0.00  0.00    +0.000 HD
ENDBRANCH  27  29
ENDBRANCH  26  27
ENDBRANCH  25  26
ENDBRANCH  23  25
ENDBRANCH  22  23
ENDBRANCH  21  22
ENDBRANCH   1  21
TORSDOF 13
