REMARK  Name = Chlormerodrin Hg-197
REMARK  5 active torsions:
REMARK  status: ('A' for Active; 'I' for Inactive)
REMARK    1  A    between atoms: C_2  and  O_3
REMARK    2  A    between atoms: O_3  and  C_4
REMARK    3  A    between atoms: C_4  and  C_5
REMARK    4  A    between atoms: C_4  and  C_7
REMARK    5  A    between atoms: C_7  and  N_8
REMARK                            x       y       z     vdW  Elec       q    Type
REMARK                         _______ _______ _______ _____ _____    ______ ____
ROOT
ATOM      1 CL   UNL     1       0.968   0.032  -0.089  0.00  0.00    +0.000 Cl
ENDROOT
TORSDOF 0
REMARK  Name = Chlormerodrin Hg-197
REMARK  5 active torsions:
REMARK  status: ('A' for Active; 'I' for Inactive)
REMARK    1  A    between atoms: C_2  and  O_3
REMARK    2  A    between atoms: O_3  and  C_4
REMARK    3  A    between atoms: C_4  and  C_5
REMARK    4  A    between atoms: C_4  and  C_7
REMARK    5  A    between atoms: C_7  and  N_8
REMARK                            x       y       z     vdW  Elec       q    Type
REMARK                         _______ _______ _______ _____ _____    ______ ____
ROOT
ATOM      1  N   UNL     2       4.869   2.187  -1.777  0.00  0.00    +0.000 N 
ATOM      2  C   UNL     2       6.314   2.396  -1.945  0.00  0.00    +0.000 C 
ATOM      3  N   UNL     2       7.269   1.525  -1.245  0.00  0.00    +0.000 N 
ATOM      4  O   UNL     2       6.738   3.330  -2.696  0.00  0.00    +0.000 OA
ATOM      5  H   UNL     2       4.229   2.770  -2.246  0.00  0.00    +0.000 HD
ATOM      6  H   UNL     2       6.941   0.802  -0.663  0.00  0.00    +0.000 HD
ATOM      7  H   UNL     2       8.237   1.666  -1.358  0.00  0.00    +0.000 HD
ENDROOT
BRANCH   1   8
ATOM      8  C   UNL     2       4.379   1.107  -0.908  0.00  0.00    +0.000 C 
BRANCH   8   9
ATOM      9  C   UNL     2       2.859   1.107  -0.908  0.00  0.00    +0.000 C 
BRANCH   9  11
ATOM     10  C   UNL     2       0.965   0.064  -0.069  0.00  0.00    +0.000 C 
ATOM     11  O   UNL     2       2.385   0.064  -0.069  0.00  0.00    +0.000 OA
ENDBRANCH   9  11
BRANCH   9  12
ATOM     12  C   UNL     2       2.352   2.443  -0.390  0.00  0.00    +0.000 C 
ATOM     13 HG   UNL     2       0.272   2.443  -0.390  0.00  0.00    +0.000 Hg
ENDBRANCH   9  12
ENDBRANCH   8   9
ENDBRANCH   1   8
TORSDOF 4
