REMARK  Name = Chloramphenicol
REMARK  8 active torsions:
REMARK  status: ('A' for Active; 'I' for Inactive)
REMARK    1  A    between atoms: O_1  and  C_2
REMARK    2  A    between atoms: C_2  and  C_3
REMARK    3  A    between atoms: C_3  and  N_4
REMARK    4  A    between atoms: C_3  and  C_10
REMARK    5  A    between atoms: C_5  and  C_7
REMARK    6  A    between atoms: C_10  and  O_11
REMARK    7  A    between atoms: C_10  and  C_12
REMARK    8  A    between atoms: C_15  and  N_18
REMARK                            x       y       z     vdW  Elec       q    Type
REMARK                         _______ _______ _______ _____ _____    ______ ____
ROOT
ATOM      1  C   UNK A   1       4.437   0.981   1.103  0.00  0.00    +0.000 C 
ENDROOT
BRANCH   1   2
ATOM      2  C   UNK A   1       4.899   2.044   2.083  0.00  0.00    +0.000 A 
ATOM      3  C   UNK A   1       5.280   1.672   3.383  0.00  0.00    +0.000 A 
ATOM      4  C   UNK A   1       5.435   2.643   4.374  0.00  0.00    +0.000 A 
ATOM      5  C   UNK A   1       5.310   3.996   4.038  0.00  0.00    +0.000 A 
ATOM      6  C   UNK A   1       4.979   4.384   2.737  0.00  0.00    +0.000 A 
ATOM      7  C   UNK A   1       4.767   3.407   1.771  0.00  0.00    +0.000 A 
BRANCH   5   8
ATOM      8  N   UNK A   1       5.571   5.030   5.042  0.00  0.00    +0.000 N 
ATOM      9  O   UNK A   1       5.873   4.656   6.188  0.00  0.00    +0.000 OA
ATOM     10  O   UNK A   1       5.497   6.211   4.685  0.00  0.00    +0.000 OA
ENDBRANCH   5   8
ENDBRANCH   1   2
BRANCH   1  11
ATOM     11  O   UNK A   1       3.004   1.009   1.184  0.00  0.00    +0.000 OA
ATOM     12  H   UNK A   1       2.698   1.891   0.926  0.00  0.00    +0.000 HD
ENDBRANCH   1  11
BRANCH   1  13
ATOM     13  C   UNK A   1       4.956   1.186  -0.358  0.00  0.00    +0.000 C 
BRANCH  13  14
ATOM     14  N   UNK A   1       6.319   0.657  -0.580  0.00  0.00    +0.000 N 
ATOM     15  C   UNK A   0       6.626  -0.682  -0.343  0.00  0.00    +0.000 C 
ATOM     16  O   UNK A   0       5.801  -1.473   0.119  0.00  0.00    +0.000 OA
ATOM     17  H   UNK A   1       7.070   1.321  -0.742  0.00  0.00    +0.000 HD
BRANCH  15  18
ATOM     18  C   UNK A   0       8.047  -1.121  -0.675  0.00  0.00    +0.000 C 
ATOM     19 CL   UNK A   0       9.153  -0.329   0.467  0.00  0.00    +0.000 Cl
ATOM     20 CL   UNK A   0       8.197  -2.891  -0.550  0.00  0.00    +0.000 Cl
ENDBRANCH  15  18
ENDBRANCH  13  14
BRANCH  13  21
ATOM     21  C   UNK A   1       3.951   0.660  -1.407  0.00  0.00    +0.000 C 
BRANCH  21  22
ATOM     22  O   UNK A   1       3.790  -0.741  -1.314  0.00  0.00    +0.000 OA
ATOM     23  H   UNK A   1       3.177  -1.056  -1.991  0.00  0.00    +0.000 HD
ENDBRANCH  21  22
ENDBRANCH  13  21
ENDBRANCH   1  13
TORSDOF 8
