REMARK  Name = Chlordiazepoxide
REMARK  2 active torsions:
REMARK  status: ('A' for Active; 'I' for Inactive)
REMARK    1  A    between atoms: C_1  and  N_2
REMARK    2  A    between atoms: C_12  and  C_13
REMARK                            x       y       z     vdW  Elec       q    Type
REMARK                         _______ _______ _______ _____ _____    ______ ____
ROOT
ATOM      1  C   UNL     1       0.997   0.049   0.034  0.00  0.00    +0.000 C 
ATOM      2  N   UNL     1       2.446   0.139  -0.011  0.00  0.00    +0.000 N 
ATOM      3  C   UNL     1       3.155   0.297  -1.196  0.00  0.00    +0.000 C 
ATOM      4  N   UNL     1       4.176  -0.461  -1.446  0.00  0.00    +0.000 NA
ATOM      5  C   UNL     1       4.926  -0.335  -2.650  0.00  0.00    +0.000 A 
ATOM      6  C   UNL     1       5.340   0.881  -3.226  0.00  0.00    +0.000 A 
ATOM      7  C   UNL     1       6.107   0.860  -4.406  0.00  0.00    +0.000 A 
ATOM      8  C   UNL     1       6.506  -0.322  -5.006  0.00  0.00    +0.000 A 
ATOM      9 CL   UNL     1       7.466  -0.253  -6.433  0.00  0.00    +0.000 Cl
ATOM     10  C   UNL     1       6.131  -1.525  -4.445  0.00  0.00    +0.000 A 
ATOM     11  C   UNL     1       5.346  -1.526  -3.278  0.00  0.00    +0.000 A 
ATOM     12  C   UNL     1       4.997   2.200  -2.621  0.00  0.00    +0.000 C 
ATOM     13  N   UNL     1       3.789   2.406  -2.113  0.00  0.00    +0.000 N 
ATOM     14  O   UNL     1       3.475   3.545  -1.618  0.00  0.00    +0.000 OA
ATOM     15  C   UNL     1       2.714   1.395  -2.133  0.00  0.00    +0.000 C 
ATOM     16  H   UNL     1       2.912  -0.464   0.660  0.00  0.00    +0.000 HD
ENDROOT
BRANCH  12  17
ATOM     17  C   UNL     1       6.007   3.295  -2.562  0.00  0.00    +0.000 A 
ATOM     18  C   UNL     1       6.407   3.795  -1.322  0.00  0.00    +0.000 A 
ATOM     19  C   UNL     1       7.243   4.914  -1.271  0.00  0.00    +0.000 A 
ATOM     20  C   UNL     1       7.803   5.430  -2.440  0.00  0.00    +0.000 A 
ATOM     21  C   UNL     1       7.502   4.855  -3.666  0.00  0.00    +0.000 A 
ATOM     22  C   UNL     1       6.527   3.867  -3.727  0.00  0.00    +0.000 A 
ENDBRANCH  12  17
TORSDOF 1
