REMARK  Name = Chloroxine
REMARK  1 active torsions:
REMARK  status: ('A' for Active; 'I' for Inactive)
REMARK    1  A    between atoms: O_1  and  C_2
REMARK                            x       y       z     vdW  Elec       q    Type
REMARK                         _______ _______ _______ _____ _____    ______ ____
ROOT
ATOM      1  C   UNL     1       2.427   0.065   0.112  0.00  0.00    +0.000 A 
ATOM      2  C   UNL     1       3.080  -1.168   0.040  0.00  0.00    +0.000 A 
ATOM      3 CL   UNL     1       2.184  -2.636  -0.088  0.00  0.00    +0.000 Cl
ATOM      4  C   UNL     1       4.467  -1.229   0.047  0.00  0.00    +0.000 A 
ATOM      5  C   UNL     1       5.198  -0.048   0.126  0.00  0.00    +0.000 A 
ATOM      6 CL   UNL     1       6.927  -0.196   0.089  0.00  0.00    +0.000 Cl
ATOM      7  C   UNL     1       4.555   1.208   0.158  0.00  0.00    +0.000 A 
ATOM      8  C   UNL     1       3.137   1.271   0.159  0.00  0.00    +0.000 A 
ATOM      9  N   UNL     1       2.489   2.455   0.155  0.00  0.00    +0.000 NA
ATOM     10  C   UNL     1       3.200   3.591   0.014  0.00  0.00    +0.000 A 
ATOM     11  C   UNL     1       4.574   3.621  -0.067  0.00  0.00    +0.000 A 
ATOM     12  C   UNL     1       5.253   2.429   0.113  0.00  0.00    +0.000 A 
ENDROOT
BRANCH   1  13
ATOM     13  O   UNL     1       1.046   0.112   0.093  0.00  0.00    +0.000 OA
ATOM     14  H   UNL     1       0.707  -0.798   0.027  0.00  0.00    +0.000 HD
ENDBRANCH   1  13
TORSDOF 1
