REMARK  Name = Chlormerodrin
REMARK  6 active torsions:
REMARK  status: ('A' for Active; 'I' for Inactive)
REMARK    1  A    between atoms: C_1  and  O_2
REMARK    2  A    between atoms: O_2  and  C_3
REMARK    3  A    between atoms: C_3  and  C_4
REMARK    4  A    between atoms: C_3  and  C_9
REMARK    5  A    between atoms: C_4  and  N_5
REMARK    6  A    between atoms: C_9  and  HG_10
REMARK                            x       y       z     vdW  Elec       q    Type
REMARK                         _______ _______ _______ _____ _____    ______ ____
ROOT
ATOM      1  C   UNL     1       2.369  -0.898  -2.237  0.00  0.00    +0.000 C 
ENDROOT
BRANCH   1   2
ATOM      2  N   UNL     1       0.899  -0.898  -2.237  0.00  0.00    +0.000 N 
ATOM      3  C   UNL     1       0.164  -0.691  -3.493  0.00  0.00    +0.000 C 
ATOM      4  N   UNL     1       0.899  -0.484  -4.750  0.00  0.00    +0.000 N 
ATOM      5  O   UNL     1      -1.107  -0.691  -3.493  0.00  0.00    +0.000 OA
ATOM      6  H   UNL     1       0.407  -1.036  -1.396  0.00  0.00    +0.000 HD
ATOM      7  H   UNL     1       1.884  -0.484  -4.750  0.00  0.00    +0.000 HD
ATOM      8  H   UNL     1       0.407  -0.346  -5.591  0.00  0.00    +0.000 HD
ENDBRANCH   1   2
BRANCH   1   9
ATOM      9  C   UNL     1       2.876  -1.130  -0.823  0.00  0.00    +0.000 C 
BRANCH   9  11
ATOM     10  C   UNL     1       0.982  -0.095   0.026  0.00  0.00    +0.000 C 
ATOM     11  O   UNL     1       2.402  -0.095   0.026  0.00  0.00    +0.000 OA
ENDBRANCH   9  11
BRANCH   9  12
ATOM     12  C   UNL     1       4.396  -1.130  -0.823  0.00  0.00    +0.000 C 
BRANCH  12  13
ATOM     13 HG   UNL     1       5.089  -2.647  -2.067  0.00  0.00    +0.000 Hg
ATOM     14 CL   UNL     1       5.869  -4.353  -3.465  0.00  0.00    +0.000 Cl
ENDBRANCH  12  13
ENDBRANCH   9  12
ENDBRANCH   1   9
TORSDOF 5
