REMARK  Name = Chloroxylenol
REMARK  3 active torsions:
REMARK  status: ('A' for Active; 'I' for Inactive)
REMARK    1  A    between atoms: C_1  and  C_2
REMARK    2  A    between atoms: C_4  and  O_5
REMARK    3  A    between atoms: C_7  and  C_8
REMARK                            x       y       z     vdW  Elec       q    Type
REMARK                         _______ _______ _______ _____ _____    ______ ____
ROOT
ATOM      1  C   UNL     1      -0.737   2.539  -0.000  0.00  0.00    +0.000 C 
ATOM      2  C   UNL     1      -0.020   1.217   0.004  0.00  0.00    +0.000 A 
ATOM      3  C   UNL     1       1.384   1.190   0.008  0.00  0.00    +0.000 A 
ATOM      4  C   UNL     1       2.053  -0.030  -0.008  0.00  0.00    +0.000 A 
ATOM      5  C   UNL     1       1.352  -1.231  -0.021  0.00  0.00    +0.000 A 
ATOM      6  C   UNL     1      -0.051  -1.232  -0.004  0.00  0.00    +0.000 A 
ATOM      7  C   UNL     1      -0.800  -2.534   0.029  0.00  0.00    +0.000 C 
ATOM      8  C   UNL     1      -0.731   0.001   0.001  0.00  0.00    +0.000 A 
ATOM      9 CL   UNL     1      -2.468   0.023   0.006  0.00  0.00    +0.000 Cl
ENDROOT
BRANCH   4  10
ATOM     10  O   UNL     1       3.416  -0.088  -0.008  0.00  0.00    +0.000 OA
ATOM     11  H   UNL     1       3.770   0.816   0.026  0.00  0.00    +0.000 HD
ENDBRANCH   4  10
TORSDOF 1
