REMARK  Name = Chlorzoxazone
REMARK  0 active torsions:
REMARK  status: ('A' for Active; 'I' for Inactive)
REMARK                            x       y       z     vdW  Elec       q    Type
REMARK                         _______ _______ _______ _____ _____    ______ ____
ROOT
ATOM      1 CL   UNL     1       0.982  -0.015  -0.043  0.00  0.00    +0.000 Cl
ATOM      2  C   UNL     1       2.704  -0.036  -0.039  0.00  0.00    +0.000 A 
ATOM      3  C   UNL     1       3.374  -1.261  -0.036  0.00  0.00    +0.000 A 
ATOM      4  C   UNL     1       4.748  -1.206  -0.026  0.00  0.00    +0.000 A 
ATOM      5  C   UNL     1       5.455  -0.021  -0.020  0.00  0.00    +0.000 A 
ATOM      6  O   UNL     1       6.826  -0.222  -0.009  0.00  0.00    +0.000 OA
ATOM      7  C   UNL     1       6.923  -1.621  -0.008  0.00  0.00    +0.000 A 
ATOM      8  O   UNL     1       7.980  -2.234   0.000  0.00  0.00    +0.000 OA
ATOM      9  N   UNL     1       5.678  -2.205  -0.019  0.00  0.00    +0.000 N 
ATOM     10  C   UNL     1       4.810   1.198  -0.025  0.00  0.00    +0.000 A 
ATOM     11  C   UNL     1       3.409   1.185  -0.035  0.00  0.00    +0.000 A 
ATOM     12  H   UNL     1       5.527  -3.200  -0.020  0.00  0.00    +0.000 HD
ENDROOT
TORSDOF 0
