REMARK  Name = Chlorquinaldol
REMARK  2 active torsions:
REMARK  status: ('A' for Active; 'I' for Inactive)
REMARK    1  A    between atoms: C_1  and  C_2
REMARK    2  A    between atoms: C_13  and  O_14
REMARK                            x       y       z     vdW  Elec       q    Type
REMARK                         _______ _______ _______ _____ _____    ______ ____
ROOT
ATOM      1  C   UNL     1       0.909  -0.054  -0.099  0.00  0.00    +0.000 C 
ATOM      2  C   UNL     1       2.405  -0.017  -0.073  0.00  0.00    +0.000 A 
ATOM      3  N   UNL     1       3.070  -1.184   0.073  0.00  0.00    +0.000 NA
ATOM      4  C   UNL     1       4.419  -1.177   0.148  0.00  0.00    +0.000 A 
ATOM      5  C   UNL     1       5.143   0.041   0.213  0.00  0.00    +0.000 A 
ATOM      6  C   UNL     1       4.407   1.233   0.135  0.00  0.00    +0.000 A 
ATOM      7  C   UNL     1       3.050   1.205  -0.126  0.00  0.00    +0.000 A 
ATOM      8  C   UNL     1       6.552   0.016   0.281  0.00  0.00    +0.000 A 
ATOM      9 CL   UNL     1       7.496   1.471   0.338  0.00  0.00    +0.000 Cl
ATOM     10  C   UNL     1       7.252  -1.184   0.230  0.00  0.00    +0.000 A 
ATOM     11  C   UNL     1       6.546  -2.377   0.153  0.00  0.00    +0.000 A 
ATOM     12 CL   UNL     1       7.426  -3.858   0.060  0.00  0.00    +0.000 Cl
ATOM     13  C   UNL     1       5.149  -2.372   0.130  0.00  0.00    +0.000 A 
ENDROOT
BRANCH  13  14
ATOM     14  O   UNL     1       4.460  -3.567   0.047  0.00  0.00    +0.000 OA
ATOM     15  H   UNL     1       5.107  -4.293   0.012  0.00  0.00    +0.000 HD
ENDBRANCH  13  14
TORSDOF 1
