REMARK  Name = Chlorphenesin carbamate
REMARK  7 active torsions:
REMARK  status: ('A' for Active; 'I' for Inactive)
REMARK    1  A    between atoms: C_2  and  O_4
REMARK    2  A    between atoms: O_4  and  C_5
REMARK    3  A    between atoms: C_5  and  C_6
REMARK    4  A    between atoms: C_6  and  O_7
REMARK    5  A    between atoms: C_6  and  C_8
REMARK    6  A    between atoms: C_8  and  O_9
REMARK    7  A    between atoms: O_9  and  C_10
REMARK                            x       y       z     vdW  Elec       q    Type
REMARK                         _______ _______ _______ _____ _____    ______ ____
ROOT
ATOM      1  C   UNL     1       4.989   1.501  -2.208  0.00  0.00    +0.000 C 
ENDROOT
BRANCH   1   2
ATOM      2  O   UNL     1       4.500   2.849  -2.124  0.00  0.00    +0.000 OA
ATOM      3  H   UNL     1       4.858   3.253  -1.317  0.00  0.00    +0.000 HD
ENDBRANCH   1   2
BRANCH   1   4
ATOM      4  C   UNL     1       4.436   0.680  -1.022  0.00  0.00    +0.000 C 
BRANCH   4   5
ATOM      5  O   UNL     1       2.988   0.670  -1.035  0.00  0.00    +0.000 OA
BRANCH   5   7
ATOM      6  N   UNL     1       1.065   0.035  -0.062  0.00  0.00    +0.000 N 
ATOM      7  C   UNL     1       2.419  -0.006  -0.005  0.00  0.00    +0.000 C 
ATOM      8  O   UNL     1       3.022  -0.593   0.883  0.00  0.00    +0.000 OA
ATOM      9  H   UNL     1       0.537  -0.440   0.657  0.00  0.00    +0.000 HD
ATOM     10  H   UNL     1       0.578   0.532  -0.792  0.00  0.00    +0.000 HD
ENDBRANCH   5   7
ENDBRANCH   4   5
ENDBRANCH   1   4
BRANCH   1  11
ATOM     11  C   UNL     1       6.538   1.501  -2.237  0.00  0.00    +0.000 C 
BRANCH  11  12
ATOM     12  O   UNL     1       7.002   2.278  -3.359  0.00  0.00    +0.000 OA
BRANCH  12  13
ATOM     13  C   UNL     1       8.364   2.361  -3.500  0.00  0.00    +0.000 A 
ATOM     14  C   UNL     1       9.221   1.265  -3.402  0.00  0.00    +0.000 A 
ATOM     15  C   UNL     1      10.597   1.424  -3.609  0.00  0.00    +0.000 A 
ATOM     16  C   UNL     1      11.115   2.678  -3.926  0.00  0.00    +0.000 A 
ATOM     17 CL   UNL     1      12.810   2.869  -4.154  0.00  0.00    +0.000 Cl
ATOM     18  C   UNL     1      10.264   3.772  -4.061  0.00  0.00    +0.000 A 
ATOM     19  C   UNL     1       8.888   3.609  -3.857  0.00  0.00    +0.000 A 
ENDBRANCH  12  13
ENDBRANCH  11  12
ENDBRANCH   1  11
TORSDOF 7
