REMARK  Name = Chlortetracycline
REMARK  10 active torsions:
REMARK  status: ('A' for Active; 'I' for Inactive)
REMARK    1  A    between atoms: C_7  and  O_8
REMARK    2  A    between atoms: C_9  and  O_10
REMARK    3  A    between atoms: C_13  and  C_14
REMARK    4  A    between atoms: C_17  and  O_18
REMARK    5  A    between atoms: C_19  and  N_20
REMARK    6  A    between atoms: N_20  and  C_21
REMARK    7  A    between atoms: N_20  and  C_22
REMARK    8  A    between atoms: C_26  and  O_27
REMARK    9  A    between atoms: C_33  and  C_34
REMARK   10  A    between atoms: C_33  and  O_35
REMARK                            x       y       z     vdW  Elec       q    Type
REMARK                         _______ _______ _______ _____ _____    ______ ____
ROOT
ATOM      1  C   UNL     1       1.532   0.364  -0.031  0.00  0.00    +0.000 C 
ATOM      2  C   UNL     1       1.978   0.191   1.615  0.00  0.00    +0.000 C 
ATOM      3  C   UNL     1       1.644  -0.930   2.474  0.00  0.00    +0.000 C 
ATOM      4  C   UNL     1       2.269  -2.056   1.841  0.00  0.00    +0.000 C 
ATOM      5  C   UNL     1       2.856  -1.772   0.677  0.00  0.00    +0.000 C 
ATOM      6  C   UNL     1       2.838  -0.146  -0.072  0.00  0.00    +0.000 C 
ATOM      7  C   UNL     1       2.815   1.796   0.545  0.00  0.00    +0.000 C 
ATOM      8  O   UNL     1       2.060   2.419   1.394  0.00  0.00    +0.000 OA
ATOM      9  C   UNL     1       3.117   3.050  -0.203  0.00  0.00    +0.000 C 
ATOM     10  C   UNL     1       2.135   2.693  -1.093  0.00  0.00    +0.000 C 
ATOM     11  C   UNL     1       2.295   1.261  -1.514  0.00  0.00    +0.000 C 
ATOM     12  C   UNL     1       2.290  -3.291   2.650  0.00  0.00    +0.000 C 
ATOM     13  O   UNL     1       2.463  -4.392   2.142  0.00  0.00    +0.000 OA
ATOM     14  C   UNL     1       2.141  -3.069   4.136  0.00  0.00    +0.000 A 
ATOM     15  C   UNL     1       1.971  -4.152   4.984  0.00  0.00    +0.000 A 
ATOM     16  C   UNL     1       1.811  -3.933   6.348  0.00  0.00    +0.000 A 
ATOM     17  C   UNL     1       1.849  -2.658   6.889  0.00  0.00    +0.000 A 
ATOM     18  C   UNL     1       2.082  -1.570   6.092  0.00  0.00    +0.000 A 
ATOM     19 CL   UNL     1       2.239  -0.112   7.013  0.00  0.00    +0.000 Cl
ATOM     20  C   UNL     1       2.185  -1.754   4.705  0.00  0.00    +0.000 A 
ATOM     21  C   UNL     1       2.352  -0.591   3.798  0.00  0.00    +0.000 C 
ATOM     22  C   UNL     1       1.649   0.695   4.277  0.00  0.00    +0.000 C 
ENDROOT
BRANCH   9  23
ATOM     23  C   UNL     1       4.598   3.232   0.147  0.00  0.00    +0.000 C 
ATOM     24  N   UNL     1       5.332   2.083   0.275  0.00  0.00    +0.000 N 
ATOM     25  O   UNL     1       5.137   4.322   0.279  0.00  0.00    +0.000 OA
ATOM     26  H   UNL     1       4.877   1.331  -0.216  0.00  0.00    +0.000 HD
ATOM     27  H   UNL     1       6.285   2.170  -0.047  0.00  0.00    +0.000 HD
ENDBRANCH   9  23
BRANCH  11  28
ATOM     28  N   UNL     1       3.949   1.203  -1.745  0.00  0.00    +0.000 NA
ATOM     29  C   UNL     1       4.789  -0.014  -1.845  0.00  0.00    +0.000 C 
ATOM     30  C   UNL     1       4.492   2.278  -2.572  0.00  0.00    +0.000 C 
ENDBRANCH  11  28
BRANCH   5  31
ATOM     31  O   UNL     1       3.260  -2.862  -0.127  0.00  0.00    +0.000 OA
ATOM     32  H   UNL     1       2.953  -3.699   0.314  0.00  0.00    +0.000 HD
ENDBRANCH   5  31
BRANCH   6  33
ATOM     33  O   UNL     1       2.593  -0.908  -1.338  0.00  0.00    +0.000 OA
ATOM     34  H   UNL     1       3.217  -1.666  -1.342  0.00  0.00    +0.000 HD
ENDBRANCH   6  33
BRANCH  10  35
ATOM     35  O   UNL     1       0.765   3.000  -0.917  0.00  0.00    +0.000 OA
ATOM     36  H   UNL     1       0.620   3.450  -0.057  0.00  0.00    +0.000 HD
ENDBRANCH  10  35
BRANCH  15  37
ATOM     37  O   UNL     1       1.933  -5.450   4.569  0.00  0.00    +0.000 OA
ATOM     38  H   UNL     1       2.094  -5.492   3.602  0.00  0.00    +0.000 HD
ENDBRANCH  15  37
BRANCH  21  39
ATOM     39  O   UNL     1       3.779  -0.410   3.665  0.00  0.00    +0.000 OA
ATOM     40  H   UNL     1       4.191  -1.192   3.245  0.00  0.00    +0.000 HD
ENDBRANCH  21  39
TORSDOF 7
