REMARK  Name = Chlorthalidone
REMARK  4 active torsions:
REMARK  status: ('A' for Active; 'I' for Inactive)
REMARK    1  A    between atoms: N_1  and  S_2
REMARK    2  A    between atoms: S_2  and  C_5
REMARK    3  A    between atoms: C_10  and  C_12
REMARK    4  A    between atoms: C_12  and  O_13
REMARK                            x       y       z     vdW  Elec       q    Type
REMARK                         _______ _______ _______ _____ _____    ______ ____
ROOT
ATOM      1  C   UNL     1       3.271   1.029   1.323  0.00  0.00    +0.000 A 
ATOM      2  C   UNL     1       3.919   0.449   2.419  0.00  0.00    +0.000 A 
ATOM      3 CL   UNL     1       4.324  -1.213   2.606  0.00  0.00    +0.000 Cl
ATOM      4  C   UNL     1       4.303   1.255   3.488  0.00  0.00    +0.000 A 
ATOM      5  C   UNL     1       4.058   2.617   3.465  0.00  0.00    +0.000 A 
ATOM      6  C   UNL     1       3.365   3.236   2.406  0.00  0.00    +0.000 A 
ATOM      7  C   UNL     1       3.015   2.432   1.305  0.00  0.00    +0.000 A 
ENDROOT
BRANCH   6   8
ATOM      8  C   UNL     1       3.010   4.695   2.607  0.00  0.00    +0.000 C 
ATOM      9  N   UNL     1       3.969   5.633   2.137  0.00  0.00    +0.000 N 
ATOM     10  C   UNL     1       3.380   6.838   1.792  0.00  0.00    +0.000 C 
ATOM     11  O   UNL     1       3.961   7.865   1.501  0.00  0.00    +0.000 OA
ATOM     12  C   UNL     1       1.912   6.613   1.807  0.00  0.00    +0.000 A 
ATOM     13  C   UNL     1       0.839   7.480   1.690  0.00  0.00    +0.000 A 
ATOM     14  C   UNL     1      -0.445   6.953   1.916  0.00  0.00    +0.000 A 
ATOM     15  C   UNL     1      -0.632   5.598   2.247  0.00  0.00    +0.000 A 
ATOM     16  C   UNL     1       0.455   4.741   2.348  0.00  0.00    +0.000 A 
ATOM     17  C   UNL     1       1.719   5.266   2.138  0.00  0.00    +0.000 A 
ATOM     18  H   UNL     1       4.968   5.517   2.216  0.00  0.00    +0.000 HD
BRANCH   8  19
ATOM     19  O   UNL     1       2.867   4.904   4.018  0.00  0.00    +0.000 OA
ATOM     20  H   UNL     1       2.382   4.126   4.347  0.00  0.00    +0.000 HD
ENDBRANCH   8  19
ENDBRANCH   6   8
BRANCH   1  21
ATOM     21  S   UNL     1       2.771   0.092  -0.102  0.00  0.00    +0.000 S 
ATOM     22  O   UNL     1       3.099  -1.311   0.023  0.00  0.00    +0.000 OA
ATOM     23  O   UNL     1       3.128   0.844  -1.277  0.00  0.00    +0.000 OA
BRANCH  21  24
ATOM     24  N   UNL     1       1.086   0.154  -0.016  0.00  0.00    +0.000 NA
ATOM     25  H   UNL     1       0.715  -0.534  -0.680  0.00  0.00    +0.000 HD
ATOM     26  H   UNL     1       0.722   1.083  -0.219  0.00  0.00    +0.000 HD
ENDBRANCH  21  24
ENDBRANCH   1  21
TORSDOF 4
