REMARK  Name = Chloral hydrate
REMARK  3 active torsions:
REMARK  status: ('A' for Active; 'I' for Inactive)
REMARK    1  A    between atoms: O_1  and  C_2
REMARK    2  A    between atoms: C_2  and  O_3
REMARK    3  A    between atoms: C_2  and  C_4
REMARK                            x       y       z     vdW  Elec       q    Type
REMARK                         _______ _______ _______ _____ _____    ______ ____
ROOT
ATOM      1  C   UNL     1       2.341  -0.022  -0.045  0.00  0.00    +0.000 C 
ENDROOT
BRANCH   1   2
ATOM      2  C   UNL     1       2.872  -1.143  -1.006  0.00  0.00    +0.000 C 
ATOM      3 CL   UNL     1       2.319  -2.768  -0.502  0.00  0.00    +0.000 Cl
ATOM      4 CL   UNL     1       2.286  -0.829  -2.674  0.00  0.00    +0.000 Cl
ATOM      5 CL   UNL     1       4.667  -1.124  -1.016  0.00  0.00    +0.000 Cl
ENDBRANCH   1   2
BRANCH   1   6
ATOM      6  O   UNL     1       0.916   0.064  -0.006  0.00  0.00    +0.000 OA
ATOM      7  H   UNL     1       0.594   0.120  -0.922  0.00  0.00    +0.000 HD
ENDBRANCH   1   6
BRANCH   1   8
ATOM      8  O   UNL     1       2.794  -0.168   1.302  0.00  0.00    +0.000 OA
ATOM      9  H   UNL     1       3.761  -0.271   1.282  0.00  0.00    +0.000 HD
ENDBRANCH   1   8
TORSDOF 3
