REMARK  Name = Chloroform
REMARK  0 active torsions:
REMARK  status: ('A' for Active; 'I' for Inactive)
REMARK                            x       y       z     vdW  Elec       q    Type
REMARK                         _______ _______ _______ _____ _____    ______ ____
ROOT
ATOM      1 CL   UNL     1       0.948  -0.063   0.072  0.00  0.00    +0.000 Cl
ATOM      2  C   UNL     1       2.719  -0.045   0.042  0.00  0.00    +0.000 C 
ATOM      3 CL   UNL     1       3.326  -0.875  -1.401  0.00  0.00    +0.000 Cl
ATOM      4 CL   UNL     1       3.326   1.618   0.105  0.00  0.00    +0.000 Cl
ENDROOT
TORSDOF 0
