REMARK  Name = Chlorpropamide
REMARK  5 active torsions:
REMARK  status: ('A' for Active; 'I' for Inactive)
REMARK    1  A    between atoms: C_1  and  C_2
REMARK    2  A    between atoms: C_2  and  C_3
REMARK    3  A    between atoms: C_3  and  N_4
REMARK    4  A    between atoms: N_7  and  S_8
REMARK    5  A    between atoms: S_8  and  C_11
REMARK                            x       y       z     vdW  Elec       q    Type
REMARK                         _______ _______ _______ _____ _____    ______ ____
ROOT
ATOM      1  S   UNL     1       7.420   3.376  -2.584  0.00  0.00    +0.000 S 
ATOM      2  O   UNL     1       7.206   3.102  -3.988  0.00  0.00    +0.000 OA
ATOM      3  O   UNL     1       7.164   4.674  -1.996  0.00  0.00    +0.000 OA
ENDROOT
BRANCH   1   4
ATOM      4  C   UNL     1       9.186   3.089  -2.330  0.00  0.00    +0.000 A 
ATOM      5  C   UNL     1       9.716   1.798  -2.301  0.00  0.00    +0.000 A 
ATOM      6  C   UNL     1      11.101   1.618  -2.137  0.00  0.00    +0.000 A 
ATOM      7  C   UNL     1      11.953   2.719  -2.025  0.00  0.00    +0.000 A 
ATOM      8 CL   UNL     1      13.644   2.477  -1.800  0.00  0.00    +0.000 Cl
ATOM      9  C   UNL     1      11.438   4.010  -2.095  0.00  0.00    +0.000 A 
ATOM     10  C   UNL     1      10.055   4.197  -2.248  0.00  0.00    +0.000 A 
ENDBRANCH   1   4
BRANCH   1  14
ATOM     11  N   UNL     1       4.522   1.261  -0.915  0.00  0.00    +0.000 N 
ATOM     12  C   UNL     1       5.156   2.227  -1.676  0.00  0.00    +0.000 C 
ATOM     13  O   UNL     1       4.507   3.042  -2.324  0.00  0.00    +0.000 OA
ATOM     14  N   UNL     1       6.567   2.226  -1.672  0.00  0.00    +0.000 N 
ATOM     15  H   UNL     1       5.053   0.589  -0.385  0.00  0.00    +0.000 HD
ATOM     16  H   UNL     1       7.098   1.573  -1.118  0.00  0.00    +0.000 HD
BRANCH  11  17
ATOM     17  C   UNL     1       3.054   1.201  -0.870  0.00  0.00    +0.000 C 
BRANCH  17  19
ATOM     18  C   UNL     1       0.962   0.067   0.021  0.00  0.00    +0.000 C 
ATOM     19  C   UNL     1       2.491   0.079   0.012  0.00  0.00    +0.000 C 
ENDBRANCH  17  19
ENDBRANCH  11  17
ENDBRANCH   1  14
TORSDOF 4
