REMARK  Name = Chlorpheniramine
REMARK  7 active torsions:
REMARK  status: ('A' for Active; 'I' for Inactive)
REMARK    1  A    between atoms: C_1  and  N_2
REMARK    2  A    between atoms: N_2  and  C_3
REMARK    3  A    between atoms: N_2  and  C_4
REMARK    4  A    between atoms: C_4  and  C_5
REMARK    5  A    between atoms: C_5  and  C_6
REMARK    6  A    between atoms: C_6  and  C_7
REMARK    7  A    between atoms: C_6  and  C_14
REMARK                            x       y       z     vdW  Elec       q    Type
REMARK                         _______ _______ _______ _____ _____    ______ ____
ROOT
ATOM      1  C   UNL     1       5.058   2.663  -0.842  0.00  0.00    +0.000 C 
ENDROOT
BRANCH   1   2
ATOM      2  C   UNL     1       4.535   3.803   0.035  0.00  0.00    +0.000 A 
ATOM      3  C   UNL     1       4.790   5.125  -0.364  0.00  0.00    +0.000 A 
ATOM      4  C   UNL     1       4.537   6.180   0.510  0.00  0.00    +0.000 A 
ATOM      5  C   UNL     1       3.965   5.931   1.757  0.00  0.00    +0.000 A 
ATOM      6 CL   UNL     1       3.687   7.227   2.850  0.00  0.00    +0.000 Cl
ATOM      7  C   UNL     1       3.652   4.636   2.146  0.00  0.00    +0.000 A 
ATOM      8  C   UNL     1       3.969   3.578   1.304  0.00  0.00    +0.000 A 
ENDBRANCH   1   2
BRANCH   1   9
ATOM      9  C   UNL     1       6.594   2.622  -0.856  0.00  0.00    +0.000 A 
ATOM     10  C   UNL     1       7.327   3.174   0.203  0.00  0.00    +0.000 A 
ATOM     11  C   UNL     1       8.714   3.195   0.140  0.00  0.00    +0.000 A 
ATOM     12  C   UNL     1       9.344   2.618  -0.943  0.00  0.00    +0.000 A 
ATOM     13  C   UNL     1       8.560   2.049  -1.935  0.00  0.00    +0.000 A 
ATOM     14  N   UNL     1       7.202   2.050  -1.922  0.00  0.00    +0.000 NA
ENDBRANCH   1   9
BRANCH   1  15
ATOM     15  C   UNL     1       4.534   1.273  -0.449  0.00  0.00    +0.000 C 
BRANCH  15  16
ATOM     16  C   UNL     1       3.001   1.177  -0.530  0.00  0.00    +0.000 C 
BRANCH  16  18
ATOM     17  C   UNL     1       1.042  -0.067   0.061  0.00  0.00    +0.000 C 
ATOM     18  N   UNL     1       2.506  -0.098   0.007  0.00  0.00    +0.000 NA
ATOM     19  C   UNL     1       2.957  -1.214  -0.823  0.00  0.00    +0.000 C 
ENDBRANCH  16  18
ENDBRANCH  15  16
ENDBRANCH   1  15
TORSDOF 5
