REMARK  Name = Chloroquine
REMARK  11 active torsions:
REMARK  status: ('A' for Active; 'I' for Inactive)
REMARK    1  A    between atoms: C_1  and  C_2
REMARK    2  A    between atoms: C_2  and  N_3
REMARK    3  A    between atoms: N_3  and  C_4
REMARK    4  A    between atoms: N_3  and  C_6
REMARK    5  A    between atoms: C_4  and  C_5
REMARK    6  A    between atoms: C_6  and  C_7
REMARK    7  A    between atoms: C_7  and  C_8
REMARK    8  A    between atoms: C_8  and  C_9
REMARK    9  A    between atoms: C_9  and  C_10
REMARK   10  A    between atoms: C_9  and  N_11
REMARK   11  A    between atoms: N_11  and  C_12
REMARK                            x       y       z     vdW  Elec       q    Type
REMARK                         _______ _______ _______ _____ _____    ______ ____
ROOT
ATOM      1  N   UNL     1       8.490  -2.427  -3.591  0.00  0.00    +0.000 N 
ATOM      2  H   UNL     1       9.006  -2.223  -2.738  0.00  0.00    +0.000 HD
ENDROOT
BRANCH   1   3
ATOM      3  C   UNL     1       9.252  -3.131  -4.548  0.00  0.00    +0.000 A 
ATOM      4  C   UNL     1      10.346  -3.916  -4.166  0.00  0.00    +0.000 A 
ATOM      5  C   UNL     1      11.056  -4.599  -5.150  0.00  0.00    +0.000 A 
ATOM      6  N   UNL     1      10.721  -4.644  -6.463  0.00  0.00    +0.000 NA
ATOM      7  C   UNL     1       9.652  -3.920  -6.853  0.00  0.00    +0.000 A 
ATOM      8  C   UNL     1       9.225  -3.925  -8.192  0.00  0.00    +0.000 A 
ATOM      9  C   UNL     1       8.074  -3.231  -8.588  0.00  0.00    +0.000 A 
ATOM     10 CL   UNL     1       7.507  -3.267 -10.208  0.00  0.00    +0.000 Cl
ATOM     11  C   UNL     1       7.460  -2.388  -7.705  0.00  0.00    +0.000 A 
ATOM     12  C   UNL     1       8.092  -2.177  -6.495  0.00  0.00    +0.000 A 
ATOM     13  C   UNL     1       8.980  -3.104  -5.946  0.00  0.00    +0.000 A 
ENDBRANCH   1   3
BRANCH   1  14
ATOM     14  C   UNL     1       7.014  -2.595  -3.369  0.00  0.00    +0.000 C 
ATOM     15  C   UNL     1       6.170  -2.171  -4.570  0.00  0.00    +0.000 C 
BRANCH  14  16
ATOM     16  C   UNL     1       6.569  -1.697  -2.184  0.00  0.00    +0.000 C 
BRANCH  16  17
ATOM     17  C   UNL     1       5.040  -1.645  -2.126  0.00  0.00    +0.000 C 
BRANCH  17  18
ATOM     18  C   UNL     1       4.457  -0.742  -1.069  0.00  0.00    +0.000 C 
BRANCH  18  19
ATOM     19  N   UNL     1       2.968  -0.709  -1.138  0.00  0.00    +0.000 NA
BRANCH  19  21
ATOM     20  C   UNL     1       1.024   0.106   0.270  0.00  0.00    +0.000 C 
ATOM     21  C   UNL     1       2.519   0.108   0.003  0.00  0.00    +0.000 C 
ENDBRANCH  19  21
BRANCH  19  22
ATOM     22  C   UNL     1       2.492  -0.208  -2.453  0.00  0.00    +0.000 C 
ATOM     23  C   UNL     1       0.993  -0.277  -2.721  0.00  0.00    +0.000 C 
ENDBRANCH  19  22
ENDBRANCH  18  19
ENDBRANCH  17  18
ENDBRANCH  16  17
ENDBRANCH  14  16
ENDBRANCH   1  14
TORSDOF 8
