REMARK  Name = Chloric acid
REMARK  1 active torsions:
REMARK  status: ('A' for Active; 'I' for Inactive)
REMARK    1  A    between atoms: O_2  and  CL_3
REMARK                            x       y       z     vdW  Elec       q    Type
REMARK                         _______ _______ _______ _____ _____    ______ ____
ROOT
ATOM      1 CL   UNL     1       2.486  -0.602   1.440  0.00  0.00    +0.000 Cl
ATOM      2  O   UNL     1       1.534  -1.065   2.424  0.00  0.00    +0.000 OA
ATOM      3  O   UNL     1       3.897  -0.734   1.721  0.00  0.00    +0.000 OA
ENDROOT
BRANCH   1   5
ATOM      4  H   UNL     1       0.968   0.021   0.115  0.00  0.00    +0.000 HD
ATOM      5  O   UNL     1       1.933   0.041   0.072  0.00  0.00    +0.000 OA
ENDBRANCH   1   5
TORSDOF 1
