REMARK  Name = Chloroprocaine
REMARK  10 active torsions:
REMARK  status: ('A' for Active; 'I' for Inactive)
REMARK    1  A    between atoms: C_1  and  C_2
REMARK    2  A    between atoms: C_2  and  N_3
REMARK    3  A    between atoms: N_3  and  C_4
REMARK    4  A    between atoms: N_3  and  C_6
REMARK    5  A    between atoms: C_4  and  C_5
REMARK    6  A    between atoms: C_6  and  C_7
REMARK    7  A    between atoms: C_7  and  O_8
REMARK    8  A    between atoms: O_8  and  C_9
REMARK    9  A    between atoms: C_9  and  C_11
REMARK   10  A    between atoms: C_15  and  N_16
REMARK                            x       y       z     vdW  Elec       q    Type
REMARK                         _______ _______ _______ _____ _____    ______ ____
ROOT
ATOM      1  C   UNL     1       7.107   0.881   4.017  0.00  0.00    +0.000 C 
ATOM      2  O   UNL     1       6.479   1.123   5.030  0.00  0.00    +0.000 OA
ENDROOT
BRANCH   1   3
ATOM      3  C   UNL     1       8.597   0.820   3.987  0.00  0.00    +0.000 A 
ATOM      4  C   UNL     1       9.322   0.206   5.020  0.00  0.00    +0.000 A 
ATOM      5 CL   UNL     1       8.568  -0.695   6.290  0.00  0.00    +0.000 Cl
ATOM      6  C   UNL     1      10.729   0.250   5.032  0.00  0.00    +0.000 A 
ATOM      7  C   UNL     1      11.438   0.876   4.007  0.00  0.00    +0.000 A 
ATOM      8  C   UNL     1      10.714   1.494   2.986  0.00  0.00    +0.000 A 
ATOM      9  C   UNL     1       9.308   1.468   2.968  0.00  0.00    +0.000 A 
BRANCH   7  10
ATOM     10  N   UNL     1      12.820   0.931   4.026  0.00  0.00    +0.000 N 
ATOM     11  H   UNL     1      13.353   0.459   4.745  0.00  0.00    +0.000 HD
ATOM     12  H   UNL     1      13.333   1.304   3.238  0.00  0.00    +0.000 HD
ENDBRANCH   7  10
ENDBRANCH   1   3
BRANCH   1  13
ATOM     13  O   UNL     1       6.554   0.634   2.788  0.00  0.00    +0.000 OA
BRANCH  13  14
ATOM     14  C   UNL     1       5.106   0.605   2.830  0.00  0.00    +0.000 C 
BRANCH  14  15
ATOM     15  C   UNL     1       4.485   0.240   1.458  0.00  0.00    +0.000 C 
BRANCH  15  16
ATOM     16  N   UNL     1       2.984   0.199   1.427  0.00  0.00    +0.000 NA
BRANCH  16  18
ATOM     17  C   UNL     1       1.030   0.035  -0.216  0.00  0.00    +0.000 C 
ATOM     18  C   UNL     1       2.535  -0.066   0.038  0.00  0.00    +0.000 C 
ENDBRANCH  16  18
BRANCH  16  19
ATOM     19  C   UNL     1       2.489  -0.801   2.398  0.00  0.00    +0.000 C 
ATOM     20  C   UNL     1       0.987  -0.842   2.645  0.00  0.00    +0.000 C 
ENDBRANCH  16  19
ENDBRANCH  15  16
ENDBRANCH  14  15
ENDBRANCH  13  14
ENDBRANCH   1  13
TORSDOF 8
