REMARK  Name = Chlorcyclizine
REMARK  4 active torsions:
REMARK  status: ('A' for Active; 'I' for Inactive)
REMARK    1  A    between atoms: C_1  and  N_2
REMARK    2  A    between atoms: N_5  and  C_8
REMARK    3  A    between atoms: C_8  and  C_9
REMARK    4  A    between atoms: C_8  and  C_15
REMARK                            x       y       z     vdW  Elec       q    Type
REMARK                         _______ _______ _______ _____ _____    ______ ____
ROOT
ATOM      1  C   UNL     1      -2.110  -0.050   1.594  0.00  0.00    +0.000 C 
ENDROOT
BRANCH   1   6
ATOM      2  C   UNL     1       2.502   0.007   0.063  0.00  0.00    +0.000 C 
ATOM      3  N   UNL     1       1.103   0.035  -0.329  0.00  0.00    +0.000 NA
ATOM      4  C   UNL     1       0.410   1.227   0.192  0.00  0.00    +0.000 C 
ATOM      5  C   UNL     1      -1.080   1.247  -0.239  0.00  0.00    +0.000 C 
ATOM      6  N   UNL     1      -1.849   0.013   0.119  0.00  0.00    +0.000 NA
ATOM      7  C   UNL     1      -1.063  -1.116  -0.425  0.00  0.00    +0.000 C 
ATOM      8  C   UNL     1       0.387  -1.168   0.114  0.00  0.00    +0.000 C 
ENDBRANCH   1   6
BRANCH   1   9
ATOM      9  C   UNL     1      -2.781  -1.360   2.110  0.00  0.00    +0.000 A 
ATOM     10  C   UNL     1      -4.024  -1.378   2.768  0.00  0.00    +0.000 A 
ATOM     11  C   UNL     1      -4.604  -2.564   3.229  0.00  0.00    +0.000 A 
ATOM     12  C   UNL     1      -3.981  -3.778   2.974  0.00  0.00    +0.000 A 
ATOM     13 CL   UNL     1      -4.731  -5.247   3.448  0.00  0.00    +0.000 Cl
ATOM     14  C   UNL     1      -2.744  -3.802   2.358  0.00  0.00    +0.000 A 
ATOM     15  C   UNL     1      -2.123  -2.602   2.008  0.00  0.00    +0.000 A 
ENDBRANCH   1   9
BRANCH   1  16
ATOM     16  C   UNL     1      -2.920   1.192   2.008  0.00  0.00    +0.000 A 
ATOM     17  C   UNL     1      -2.454   2.055   3.010  0.00  0.00    +0.000 A 
ATOM     18  C   UNL     1      -3.276   3.075   3.486  0.00  0.00    +0.000 A 
ATOM     19  C   UNL     1      -4.549   3.263   2.944  0.00  0.00    +0.000 A 
ATOM     20  C   UNL     1      -4.995   2.456   1.900  0.00  0.00    +0.000 A 
ATOM     21  C   UNL     1      -4.174   1.445   1.415  0.00  0.00    +0.000 A 
ENDBRANCH   1  16
TORSDOF 3
