REMARK  Name = Chloramphenicol palmitate
REMARK  24 active torsions:
REMARK  status: ('A' for Active; 'I' for Inactive)
REMARK    1  A    between atoms: C_1  and  C_2
REMARK    2  A    between atoms: C_2  and  C_3
REMARK    3  A    between atoms: C_3  and  C_4
REMARK    4  A    between atoms: C_4  and  C_5
REMARK    5  A    between atoms: C_5  and  C_6
REMARK    6  A    between atoms: C_6  and  C_7
REMARK    7  A    between atoms: C_7  and  C_8
REMARK    8  A    between atoms: C_8  and  C_9
REMARK    9  A    between atoms: C_9  and  C_10
REMARK   10  A    between atoms: C_10  and  C_11
REMARK   11  A    between atoms: C_11  and  C_12
REMARK   12  A    between atoms: C_12  and  C_13
REMARK   13  A    between atoms: C_13  and  C_14
REMARK   14  A    between atoms: C_14  and  C_15
REMARK   15  A    between atoms: C_15  and  C_16
REMARK   16  A    between atoms: C_16  and  O_18
REMARK   17  A    between atoms: O_18  and  C_19
REMARK   18  A    between atoms: C_19  and  C_20
REMARK   19  A    between atoms: C_20  and  N_21
REMARK   20  A    between atoms: C_20  and  C_27
REMARK   21  A    between atoms: C_22  and  C_24
REMARK   22  A    between atoms: C_27  and  O_28
REMARK   23  A    between atoms: C_27  and  C_29
REMARK   24  A    between atoms: C_32  and  N_35
REMARK                            x       y       z     vdW  Elec       q    Type
REMARK                         _______ _______ _______ _____ _____    ______ ____
ROOT
ATOM      1  C   UNL     1      21.316 -10.782  -5.058  0.00  0.00    +0.000 C 
ENDROOT
BRANCH   1   2
ATOM      2  N   UNL     1      22.726 -10.309  -5.018  0.00  0.00    +0.000 N 
ATOM      3  C   UNL     1      23.098  -9.091  -5.590  0.00  0.00    +0.000 C 
ATOM      4  O   UNL     1      22.288  -8.379  -6.181  0.00  0.00    +0.000 OA
ATOM      5  H   UNL     1      23.440 -10.963  -4.712  0.00  0.00    +0.000 HD
BRANCH   3   6
ATOM      6  C   UNL     1      24.560  -8.676  -5.458  0.00  0.00    +0.000 C 
ATOM      7 CL   UNL     1      25.540  -9.798  -6.423  0.00  0.00    +0.000 Cl
ATOM      8 CL   UNL     1      24.773  -7.007  -6.052  0.00  0.00    +0.000 Cl
ENDBRANCH   3   6
ENDBRANCH   1   2
BRANCH   1   9
ATOM      9  C   UNL     1      20.750 -10.898  -6.516  0.00  0.00    +0.000 C 
BRANCH   9  10
ATOM     10  C   UNL     1      21.236 -12.170  -7.191  0.00  0.00    +0.000 A 
ATOM     11  C   UNL     1      20.617 -13.398  -6.909  0.00  0.00    +0.000 A 
ATOM     12  C   UNL     1      21.079 -14.580  -7.475  0.00  0.00    +0.000 A 
ATOM     13  C   UNL     1      22.122 -14.534  -8.401  0.00  0.00    +0.000 A 
ATOM     14  C   UNL     1      22.770 -13.325  -8.689  0.00  0.00    +0.000 A 
ATOM     15  C   UNL     1      22.331 -12.146  -8.073  0.00  0.00    +0.000 A 
BRANCH  13  16
ATOM     16  N   UNL     1      22.478 -15.760  -9.122  0.00  0.00    +0.000 N 
ATOM     17  O   UNL     1      21.846 -16.791  -8.845  0.00  0.00    +0.000 OA
ATOM     18  O   UNL     1      23.371 -15.691  -9.976  0.00  0.00    +0.000 OA
ENDBRANCH  13  16
ENDBRANCH   9  10
BRANCH   9  19
ATOM     19  O   UNL     1      19.319 -10.876  -6.555  0.00  0.00    +0.000 OA
ATOM     20  H   UNL     1      18.973 -11.594  -6.006  0.00  0.00    +0.000 HD
ENDBRANCH   9  19
ENDBRANCH   1   9
BRANCH   1  21
ATOM     21  C   UNL     1      20.408  -9.917  -4.153  0.00  0.00    +0.000 C 
BRANCH  21  22
ATOM     22  O   UNL     1      20.355  -8.588  -4.679  0.00  0.00    +0.000 OA
BRANCH  22  23
ATOM     23  C   UNL     1      19.695  -7.661  -3.967  0.00  0.00    +0.000 C 
ATOM     24  O   UNL     1      19.073  -7.905  -2.936  0.00  0.00    +0.000 OA
BRANCH  23  25
ATOM     25  C   UNL     1      19.861  -6.295  -4.599  0.00  0.00    +0.000 C 
BRANCH  25  26
ATOM     26  C   UNL     1      19.036  -5.291  -3.808  0.00  0.00    +0.000 C 
BRANCH  26  27
ATOM     27  C   UNL     1      19.123  -3.883  -4.369  0.00  0.00    +0.000 C 
BRANCH  27  28
ATOM     28  C   UNL     1      18.267  -2.946  -3.526  0.00  0.00    +0.000 C 
BRANCH  28  29
ATOM     29  C   UNL     1      18.338  -1.532  -4.072  0.00  0.00    +0.000 C 
BRANCH  29  30
ATOM     30  C   UNL     1      17.483  -0.601  -3.230  0.00  0.00    +0.000 C 
BRANCH  30  31
ATOM     31  C   UNL     1      17.558   0.811  -3.783  0.00  0.00    +0.000 C 
BRANCH  31  32
ATOM     32  C   UNL     1      16.705   1.743  -2.942  0.00  0.00    +0.000 C 
BRANCH  32  33
ATOM     33  C   UNL     1      16.782   3.154  -3.496  0.00  0.00    +0.000 C 
BRANCH  33  34
ATOM     34  C   UNL     1      15.928   4.086  -2.655  0.00  0.00    +0.000 C 
BRANCH  34  35
ATOM     35  C   UNL     1      16.004   5.498  -3.207  0.00  0.00    +0.000 C 
BRANCH  35  36
ATOM     36  C   UNL     1      15.149   6.431  -2.367  0.00  0.00    +0.000 C 
BRANCH  36  37
ATOM     37  C   UNL     1      15.223   7.845  -2.918  0.00  0.00    +0.000 C 
BRANCH  37  39
ATOM     38  C   UNL     1      14.446  10.198  -2.633  0.00  0.00    +0.000 C 
ATOM     39  C   UNL     1      14.370   8.788  -2.081  0.00  0.00    +0.000 C 
ENDBRANCH  37  39
ENDBRANCH  36  37
ENDBRANCH  35  36
ENDBRANCH  34  35
ENDBRANCH  33  34
ENDBRANCH  32  33
ENDBRANCH  31  32
ENDBRANCH  30  31
ENDBRANCH  29  30
ENDBRANCH  28  29
ENDBRANCH  27  28
ENDBRANCH  26  27
ENDBRANCH  25  26
ENDBRANCH  23  25
ENDBRANCH  22  23
ENDBRANCH  21  22
ENDBRANCH   1  21
TORSDOF 23
