REMARK  Name = Cholic Acid
REMARK  11 active torsions:
REMARK  status: ('A' for Active; 'I' for Inactive)
REMARK    1  A    between atoms: C_2  and  C_3
REMARK    2  A    between atoms: C_2  and  C_4
REMARK    3  A    between atoms: C_2  and  C_9
REMARK    4  A    between atoms: C_4  and  C_5
REMARK    5  A    between atoms: C_5  and  C_6
REMARK    6  A    between atoms: C_6  and  O_7
REMARK    7  A    between atoms: C_17  and  O_19
REMARK    8  A    between atoms: C_24  and  O_26
REMARK    9  A    between atoms: C_29  and  C_30
REMARK   10  A    between atoms: C_34  and  O_36
REMARK   11  A    between atoms: C_37  and  C_38
REMARK                            x       y       z     vdW  Elec       q    Type
REMARK                         _______ _______ _______ _____ _____    ______ ____
ROOT
ATOM      1  C   UNL     1       2.661  -0.135  -1.378  0.00  0.00    +0.000 C 
ATOM      2  C   UNL     1       3.105   1.238  -1.981  0.00  0.00    +0.000 C 
ATOM      3  C   UNL     1       4.413   0.999  -2.724  0.00  0.00    +0.000 C 
ATOM      4  C   UNL     1       4.448  -0.505  -2.908  0.00  0.00    +0.000 C 
ATOM      5  C   UNL     1       5.797  -1.119  -3.283  0.00  0.00    +0.000 C 
ATOM      6  C   UNL     1       6.423  -0.448  -4.505  0.00  0.00    +0.000 C 
ATOM      7  C   UNL     1       7.713  -1.150  -4.918  0.00  0.00    +0.000 C 
ATOM      8  C   UNL     1       7.584  -2.681  -5.056  0.00  0.00    +0.000 C 
ATOM      9  C   UNL     1       6.813  -3.037  -6.342  0.00  0.00    +0.000 C 
ATOM     10  C   UNL     1       6.656  -4.538  -6.539  0.00  0.00    +0.000 C 
ATOM     11  C   UNL     1       5.989  -5.172  -5.326  0.00  0.00    +0.000 C 
ATOM     12  C   UNL     1       6.784  -4.875  -4.061  0.00  0.00    +0.000 C 
ATOM     13  C   UNL     1       6.974  -3.356  -3.786  0.00  0.00    +0.000 C 
ATOM     14  C   UNL     1       7.983  -3.247  -2.610  0.00  0.00    +0.000 C 
ATOM     15  C   UNL     1       5.618  -2.657  -3.436  0.00  0.00    +0.000 C 
ATOM     16  C   UNL     1       4.907  -3.302  -2.216  0.00  0.00    +0.000 C 
ATOM     17  C   UNL     1       3.637  -2.568  -1.782  0.00  0.00    +0.000 C 
ATOM     18  C   UNL     1       3.926  -1.058  -1.560  0.00  0.00    +0.000 C 
ATOM     19  C   UNL     1       5.023  -0.843  -0.458  0.00  0.00    +0.000 C 
ENDROOT
BRANCH   1  20
ATOM     20  C   UNL     1       1.999  -0.044   0.040  0.00  0.00    +0.000 C 
ATOM     21  C   UNL     1       2.454   1.211   0.791  0.00  0.00    +0.000 C 
BRANCH  20  22
ATOM     22  C   UNL     1       2.239  -1.318   0.852  0.00  0.00    +0.000 C 
BRANCH  22  23
ATOM     23  C   UNL     1       1.887  -1.356   2.314  0.00  0.00    +0.000 C 
BRANCH  23  24
ATOM     24  C   UNL     1       2.463  -2.546   3.069  0.00  0.00    +0.000 C 
ATOM     25  O   UNL     1       2.238  -2.708   4.253  0.00  0.00    +0.000 OA
BRANCH  24  26
ATOM     26  O   UNL     1       3.285  -3.393   2.405  0.00  0.00    +0.000 OA
ATOM     27  H   UNL     1       3.484  -3.241   1.467  0.00  0.00    +0.000 HD
ENDBRANCH  24  26
ENDBRANCH  23  24
ENDBRANCH  22  23
ENDBRANCH  20  22
ENDBRANCH   1  20
BRANCH   6  28
ATOM     28  O   UNL     1       5.529  -0.411  -5.607  0.00  0.00    +0.000 OA
ATOM     29  H   UNL     1       4.710   0.032  -5.331  0.00  0.00    +0.000 HD
ENDBRANCH   6  28
BRANCH  10  30
ATOM     30  O   UNL     1       5.849  -4.792  -7.684  0.00  0.00    +0.000 OA
ATOM     31  H   UNL     1       6.257  -4.327  -8.435  0.00  0.00    +0.000 HD
ENDBRANCH  10  30
BRANCH  17  32
ATOM     32  O   UNL     1       2.615  -2.765  -2.759  0.00  0.00    +0.000 OA
ATOM     33  H   UNL     1       2.506  -3.722  -2.908  0.00  0.00    +0.000 HD
ENDBRANCH  17  32
TORSDOF 8
