REMARK  Name = Choline C-11
REMARK  6 active torsions:
REMARK  status: ('A' for Active; 'I' for Inactive)
REMARK    1  A    between atoms: C_1  and  N_2
REMARK    2  A    between atoms: N_2  and  C_3
REMARK    3  A    between atoms: N_2  and  C_4
REMARK    4  A    between atoms: N_2  and  C_5
REMARK    5  A    between atoms: C_5  and  C_6
REMARK    6  A    between atoms: C_6  and  O_7
REMARK                            x       y       z     vdW  Elec       q    Type
REMARK                         _______ _______ _______ _____ _____    ______ ____
ROOT
ATOM      1  C   UNL     1       1.025  -0.057  -0.029  0.00  0.00    +0.000 C 
ATOM      2  N   UNL     1       2.556  -0.084  -0.001  0.00  0.00    +0.000 N 
ATOM      3  C   UNL     1       3.014   0.364   1.383  0.00  0.00    +0.000 C 
ATOM      4  C   UNL     1       3.013  -1.512  -0.268  0.00  0.00    +0.000 C 
ENDROOT
BRANCH   2   5
ATOM      5  C   UNL     1       3.079   0.876  -1.083  0.00  0.00    +0.000 C 
BRANCH   5   6
ATOM      6  C   UNL     1       4.611   0.944  -1.176  0.00  0.00    +0.000 C 
BRANCH   6   7
ATOM      7  O   UNL     1       4.999   1.870  -2.179  0.00  0.00    +0.000 OA
ATOM      8  H   UNL     1       4.828   1.487  -3.056  0.00  0.00    +0.000 HD
ENDBRANCH   6   7
ENDBRANCH   5   6
ENDBRANCH   2   5
TORSDOF 3
