REMARK  Name = Choline C 11
REMARK  6 active torsions:
REMARK  status: ('A' for Active; 'I' for Inactive)
REMARK    1  A    between atoms: C_2  and  N_3
REMARK    2  A    between atoms: N_3  and  C_4
REMARK    3  A    between atoms: N_3  and  C_5
REMARK    4  A    between atoms: N_3  and  C_6
REMARK    5  A    between atoms: C_6  and  C_7
REMARK    6  A    between atoms: C_7  and  O_8
REMARK                            x       y       z     vdW  Elec       q    Type
REMARK                         _______ _______ _______ _____ _____    ______ ____
ROOT
ATOM      1 CL   UNL     1      -0.067   2.011   2.142  0.00  0.00    +0.000 Cl
ENDROOT
TORSDOF 0
REMARK  Name = Choline C 11
REMARK  6 active torsions:
REMARK  status: ('A' for Active; 'I' for Inactive)
REMARK    1  A    between atoms: C_2  and  N_3
REMARK    2  A    between atoms: N_3  and  C_4
REMARK    3  A    between atoms: N_3  and  C_5
REMARK    4  A    between atoms: N_3  and  C_6
REMARK    5  A    between atoms: C_6  and  C_7
REMARK    6  A    between atoms: C_7  and  O_8
REMARK                            x       y       z     vdW  Elec       q    Type
REMARK                         _______ _______ _______ _____ _____    ______ ____
ROOT
ATOM      1  C   UNL     2       0.939  -0.240  -0.252  0.00  0.00    +0.000 C 
ATOM      2  N   UNL     2       2.476  -0.177  -0.137  0.00  0.00    +0.000 N 
ATOM      3  C   UNL     2       2.915   0.805   0.963  0.00  0.00    +0.000 C 
ATOM      4  C   UNL     2       2.937  -1.559   0.257  0.00  0.00    +0.000 C 
ENDROOT
BRANCH   2   5
ATOM      5  C   UNL     2       2.995   0.319  -1.477  0.00  0.00    +0.000 C 
BRANCH   5   6
ATOM      6  C   UNL     2       4.524   0.383  -1.564  0.00  0.00    +0.000 C 
BRANCH   6   7
ATOM      7  O   UNL     2       4.943   0.782  -2.858  0.00  0.00    +0.000 OA
ATOM      8  H   UNL     2       4.652   0.106  -3.505  0.00  0.00    +0.000 HD
ENDBRANCH   6   7
ENDBRANCH   5   6
ENDBRANCH   2   5
TORSDOF 3
