REMARK  Name = Choline
REMARK  6 active torsions:
REMARK  status: ('A' for Active; 'I' for Inactive)
REMARK    1  A    between atoms: C_1  and  N_2
REMARK    2  A    between atoms: N_2  and  C_3
REMARK    3  A    between atoms: N_2  and  C_4
REMARK    4  A    between atoms: N_2  and  C_5
REMARK    5  A    between atoms: C_5  and  C_6
REMARK    6  A    between atoms: C_6  and  O_7
REMARK                            x       y       z     vdW  Elec       q    Type
REMARK                         _______ _______ _______ _____ _____    ______ ____
ROOT
ATOM      1  C   UNL     1       0.854   0.017  -0.020  0.00  0.00    +0.000 C 
ATOM      2  N   UNL     1       2.384  -0.023  -0.020  0.00  0.00    +0.000 N 
ATOM      3  C   UNL     1       2.843  -0.687   1.274  0.00  0.00    +0.000 C 
ATOM      4  C   UNL     1       2.842  -0.841  -1.220  0.00  0.00    +0.000 C 
ENDROOT
BRANCH   2   5
ATOM      5  C   UNL     1       2.907   1.421  -0.103  0.00  0.00    +0.000 C 
BRANCH   5   6
ATOM      6  C   UNL     1       4.439   1.535  -0.120  0.00  0.00    +0.000 C 
BRANCH   6   7
ATOM      7  O   UNL     1       4.828   2.900  -0.172  0.00  0.00    +0.000 OA
ATOM      8  H   UNL     1       4.656   3.251  -1.062  0.00  0.00    +0.000 HD
ENDBRANCH   6   7
ENDBRANCH   5   6
ENDBRANCH   2   5
TORSDOF 3
