REMARK  Name = Cholecalciferol
REMARK  11 active torsions:
REMARK  status: ('A' for Active; 'I' for Inactive)
REMARK    1  A    between atoms: C_1  and  C_2
REMARK    2  A    between atoms: C_2  and  C_3
REMARK    3  A    between atoms: C_2  and  C_4
REMARK    4  A    between atoms: C_4  and  C_5
REMARK    5  A    between atoms: C_5  and  C_6
REMARK    6  A    between atoms: C_6  and  C_7
REMARK    7  A    between atoms: C_7  and  C_8
REMARK    8  A    between atoms: C_7  and  C_9
REMARK    9  A    between atoms: C_19  and  C_20
REMARK   10  A    between atoms: C_21  and  C_22
REMARK   11  A    between atoms: C_25  and  O_26
REMARK                            x       y       z     vdW  Elec       q    Type
REMARK                         _______ _______ _______ _____ _____    ______ ____
ROOT
ATOM      1  C   UNL     1       7.033  -4.197   0.537  0.00  0.00    +0.000 C 
ATOM      2  C   UNL     1       7.154  -4.630   2.021  0.00  0.00    +0.000 C 
ATOM      3  C   UNL     1       7.024  -6.145   2.076  0.00  0.00    +0.000 C 
ATOM      4  C   UNL     1       7.096  -6.532   0.616  0.00  0.00    +0.000 C 
ATOM      5  C   UNL     1       6.596  -7.855   0.163  0.00  0.00    +0.000 C 
ATOM      6  C   UNL     1       6.659  -7.877  -1.330  0.00  0.00    +0.000 C 
ATOM      7  C   UNL     1       6.144  -6.785  -2.227  0.00  0.00    +0.000 C 
ATOM      8  C   UNL     1       6.624  -5.458  -1.670  0.00  0.00    +0.000 C 
ATOM      9  C   UNL     1       6.345  -5.399  -0.147  0.00  0.00    +0.000 C 
ATOM     10  C   UNL     1       4.820  -5.597   0.085  0.00  0.00    +0.000 C 
ATOM     11  C   UNL     1       6.272  -8.921   0.915  0.00  0.00    +0.000 C 
ENDROOT
BRANCH  11  12
ATOM     12  C   UNL     1       6.053 -10.245   0.349  0.00  0.00    +0.000 C 
ATOM     13  C   UNL     1       6.901 -10.940  -0.444  0.00  0.00    +0.000 C 
ATOM     14  C   UNL     1       6.536 -12.314  -0.947  0.00  0.00    +0.000 C 
ATOM     15  C   UNL     1       7.684 -13.304  -0.701  0.00  0.00    +0.000 C 
ATOM     16  C   UNL     1       9.015 -12.774  -1.240  0.00  0.00    +0.000 C 
ATOM     17  C   UNL     1       9.386 -11.462  -0.554  0.00  0.00    +0.000 C 
ATOM     18  C   UNL     1       8.263 -10.522  -0.869  0.00  0.00    +0.000 C 
ATOM     19  C   UNL     1       8.600  -9.692  -1.843  0.00  0.00    +0.000 C 
BRANCH  15  20
ATOM     20  O   UNL     1       7.388 -14.552  -1.317  0.00  0.00    +0.000 OA
ATOM     21  H   UNL     1       7.260 -14.389  -2.267  0.00  0.00    +0.000 HD
ENDBRANCH  15  20
ENDBRANCH  11  12
BRANCH   1  22
ATOM     22  C   UNL     1       6.504  -2.765   0.348  0.00  0.00    +0.000 C 
ATOM     23  C   UNL     1       7.074  -1.853   1.446  0.00  0.00    +0.000 C 
BRANCH  22  24
ATOM     24  C   UNL     1       4.985  -2.701   0.301  0.00  0.00    +0.000 C 
BRANCH  24  25
ATOM     25  C   UNL     1       4.450  -1.307   0.149  0.00  0.00    +0.000 C 
BRANCH  25  26
ATOM     26  C   UNL     1       2.932  -1.324   0.143  0.00  0.00    +0.000 C 
BRANCH  26  28
ATOM     27  C   UNL     1       0.882   0.079  -0.021  0.00  0.00    +0.000 C 
ATOM     28  C   UNL     1       2.403   0.103   0.005  0.00  0.00    +0.000 C 
ATOM     29  C   UNL     1       2.896   0.992   1.150  0.00  0.00    +0.000 C 
ENDBRANCH  26  28
ENDBRANCH  25  26
ENDBRANCH  24  25
ENDBRANCH  22  24
ENDBRANCH   1  22
TORSDOF 7
