REMARK  Name = Cholesterol
REMARK  11 active torsions:
REMARK  status: ('A' for Active; 'I' for Inactive)
REMARK    1  A    between atoms: C_2  and  C_25
REMARK    2  A    between atoms: C_13  and  O_14
REMARK    3  A    between atoms: C_17  and  C_18
REMARK    4  A    between atoms: C_23  and  C_24
REMARK    5  A    between atoms: C_25  and  C_26
REMARK    6  A    between atoms: C_25  and  C_27
REMARK    7  A    between atoms: C_27  and  C_28
REMARK    8  A    between atoms: C_28  and  C_29
REMARK    9  A    between atoms: C_29  and  C_30
REMARK   10  A    between atoms: C_30  and  C_31
REMARK   11  A    between atoms: C_30  and  C_32
REMARK                            x       y       z     vdW  Elec       q    Type
REMARK                         _______ _______ _______ _____ _____    ______ ____
ROOT
ATOM      1  C   UNL     1       1.964   0.905  -2.345  0.00  0.00    +0.000 C 
ATOM      2  C   UNL     1       0.595   1.169  -1.650  0.00  0.00    +0.000 C 
ATOM      3  C   UNL     1      -0.480   0.387  -2.440  0.00  0.00    +0.000 C 
ATOM      4  C   UNL     1       0.321  -0.485  -3.393  0.00  0.00    +0.000 C 
ATOM      5  C   UNL     1      -0.329  -1.015  -4.683  0.00  0.00    +0.000 C 
ATOM      6  C   UNL     1      -1.555  -1.843  -4.345  0.00  0.00    +0.000 C 
ATOM      7  C   UNL     1      -2.043  -2.643  -5.504  0.00  0.00    +0.000 C 
ATOM      8  C   UNL     1      -1.344  -2.863  -6.645  0.00  0.00    +0.000 C 
ATOM      9  C   UNL     1      -1.959  -3.656  -7.764  0.00  0.00    +0.000 C 
ATOM     10  C   UNL     1      -1.042  -4.781  -8.249  0.00  0.00    +0.000 C 
ATOM     11  C   UNL     1       0.356  -4.268  -8.581  0.00  0.00    +0.000 C 
ATOM     12  C   UNL     1       0.963  -3.536  -7.388  0.00  0.00    +0.000 C 
ATOM     13  C   UNL     1       0.083  -2.361  -6.863  0.00  0.00    +0.000 C 
ATOM     14  C   UNL     1       0.061  -1.229  -7.924  0.00  0.00    +0.000 C 
ATOM     15  C   UNL     1       0.681  -1.880  -5.498  0.00  0.00    +0.000 C 
ATOM     16  C   UNL     1       2.034  -1.190  -5.657  0.00  0.00    +0.000 C 
ATOM     17  C   UNL     1       2.533  -0.665  -4.325  0.00  0.00    +0.000 C 
ATOM     18  C   UNL     1       1.533   0.388  -3.733  0.00  0.00    +0.000 C 
ATOM     19  C   UNL     1       1.013   1.604  -4.620  0.00  0.00    +0.000 C 
ENDROOT
BRANCH  10  20
ATOM     20  O   UNL     1      -1.603  -5.398  -9.404  0.00  0.00    +0.000 OA
ATOM     21  H   UNL     1      -1.670  -4.720 -10.099  0.00  0.00    +0.000 HD
ENDBRANCH  10  20
BRANCH   1  22
ATOM     22  C   UNL     1       2.934   2.129  -2.324  0.00  0.00    +0.000 C 
ATOM     23  C   UNL     1       3.367   2.422  -0.881  0.00  0.00    +0.000 C 
BRANCH  22  24
ATOM     24  C   UNL     1       4.226   1.957  -3.185  0.00  0.00    +0.000 C 
BRANCH  24  25
ATOM     25  C   UNL     1       4.000   2.050  -4.690  0.00  0.00    +0.000 C 
BRANCH  25  26
ATOM     26  C   UNL     1       5.040   1.483  -5.627  0.00  0.00    +0.000 C 
BRANCH  26  27
ATOM     27  C   UNL     1       4.400   1.181  -7.013  0.00  0.00    +0.000 C 
ATOM     28  C   UNL     1       3.554   2.335  -7.561  0.00  0.00    +0.000 C 
ATOM     29  C   UNL     1       5.498   0.781  -7.976  0.00  0.00    +0.000 C 
ENDBRANCH  26  27
ENDBRANCH  25  26
ENDBRANCH  24  25
ENDBRANCH  22  24
ENDBRANCH   1  22
TORSDOF 6
