REMARK  Name = Choline salicylate
REMARK  8 active torsions:
REMARK  status: ('A' for Active; 'I' for Inactive)
REMARK    1  A    between atoms: C_1  and  N_2
REMARK    2  A    between atoms: N_2  and  C_3
REMARK    3  A    between atoms: N_2  and  C_4
REMARK    4  A    between atoms: N_2  and  C_5
REMARK    5  A    between atoms: C_5  and  C_6
REMARK    6  A    between atoms: C_6  and  O_7
REMARK    7  A    between atoms: O_8  and  C_9
REMARK    8  A    between atoms: C_14  and  C_15
REMARK                            x       y       z     vdW  Elec       q    Type
REMARK                         _______ _______ _______ _____ _____    ______ ____
ROOT
ATOM      1  C   UNL     1       1.730  -0.004   0.729  0.00  0.00    +0.000 C 
ATOM      2  N   UNL     1       3.162   0.071   0.396  0.00  0.00    +0.000 N 
ATOM      3  C   UNL     1       3.489  -0.055  -1.149  0.00  0.00    +0.000 C 
ATOM      4  C   UNL     1       3.522   1.392   1.004  0.00  0.00    +0.000 C 
ENDROOT
BRANCH   2   5
ATOM      5  C   UNL     1       3.566  -1.239   1.031  0.00  0.00    +0.000 C 
BRANCH   5   6
ATOM      6  C   UNL     1       5.044  -1.394   1.044  0.00  0.00    +0.000 C 
BRANCH   6   7
ATOM      7  O   UNL     1       5.398  -2.537   1.793  0.00  0.00    +0.000 OA
ATOM      8  H   UNL     1       4.731  -2.671   2.491  0.00  0.00    +0.000 HD
ENDBRANCH   6   7
ENDBRANCH   5   6
ENDBRANCH   2   5
TORSDOF 3
REMARK  Name = Choline salicylate
REMARK  8 active torsions:
REMARK  status: ('A' for Active; 'I' for Inactive)
REMARK    1  A    between atoms: C_1  and  N_2
REMARK    2  A    between atoms: N_2  and  C_3
REMARK    3  A    between atoms: N_2  and  C_4
REMARK    4  A    between atoms: N_2  and  C_5
REMARK    5  A    between atoms: C_5  and  C_6
REMARK    6  A    between atoms: C_6  and  O_7
REMARK    7  A    between atoms: O_8  and  C_9
REMARK    8  A    between atoms: C_14  and  C_15
REMARK                            x       y       z     vdW  Elec       q    Type
REMARK                         _______ _______ _______ _____ _____    ______ ____
ROOT
ATOM      1  C   UNL     2      -0.177  -0.037  -1.039  0.00  0.00    +0.000 A 
ATOM      2  C   UNL     2      -0.668   1.184  -0.499  0.00  0.00    +0.000 A 
ATOM      3  C   UNL     2      -1.913   1.208   0.046  0.00  0.00    +0.000 A 
ATOM      4  C   UNL     2      -2.575  -0.007   0.132  0.00  0.00    +0.000 A 
ATOM      5  C   UNL     2      -1.902  -1.230  -0.028  0.00  0.00    +0.000 A 
ATOM      6  C   UNL     2      -0.640  -1.297  -0.581  0.00  0.00    +0.000 A 
ENDROOT
BRANCH   6   7
ATOM      7  C   UNL     2       0.160  -2.661  -0.448  0.00  0.00    +0.000 C 
ATOM      8  O   UNL     2      -0.492  -3.629   0.137  0.00  0.00    +0.000 OA
ATOM      9  O   UNL     2       1.370  -2.734  -0.720  0.00  0.00    +0.000 OA
ENDBRANCH   6   7
BRANCH   1  10
ATOM     10  O   UNL     2       0.898   0.111  -1.864  0.00  0.00    +0.000 OA
ATOM     11  H   UNL     2       1.250   1.000  -1.695  0.00  0.00    +0.000 HD
ENDBRANCH   1  10
TORSDOF 2
