REMARK  Name = Choline magnesium trisalicylate
REMARK  12 active torsions:
REMARK  status: ('A' for Active; 'I' for Inactive)
REMARK    1  A    between atoms: C_2  and  N_3
REMARK    2  A    between atoms: N_3  and  C_4
REMARK    3  A    between atoms: N_3  and  C_5
REMARK    4  A    between atoms: N_3  and  C_6
REMARK    5  A    between atoms: C_6  and  C_7
REMARK    6  A    between atoms: C_7  and  O_8
REMARK    7  A    between atoms: O_9  and  C_10
REMARK    8  A    between atoms: C_15  and  C_16
REMARK    9  A    between atoms: O_19  and  C_20
REMARK   10  A    between atoms: C_25  and  C_26
REMARK   11  A    between atoms: O_29  and  C_30
REMARK   12  A    between atoms: C_35  and  C_36
REMARK                            x       y       z     vdW  Elec       q    Type
REMARK                         _______ _______ _______ _____ _____    ______ ____
ROOT
ATOM      1 MG   UNL     1       2.844  -2.593   1.638  0.00  0.00    +0.000 Mg
ENDROOT
TORSDOF 0
REMARK  Name = Choline magnesium trisalicylate
REMARK  12 active torsions:
REMARK  status: ('A' for Active; 'I' for Inactive)
REMARK    1  A    between atoms: C_2  and  N_3
REMARK    2  A    between atoms: N_3  and  C_4
REMARK    3  A    between atoms: N_3  and  C_5
REMARK    4  A    between atoms: N_3  and  C_6
REMARK    5  A    between atoms: C_6  and  C_7
REMARK    6  A    between atoms: C_7  and  O_8
REMARK    7  A    between atoms: O_9  and  C_10
REMARK    8  A    between atoms: C_15  and  C_16
REMARK    9  A    between atoms: O_19  and  C_20
REMARK   10  A    between atoms: C_25  and  C_26
REMARK   11  A    between atoms: O_29  and  C_30
REMARK   12  A    between atoms: C_35  and  C_36
REMARK                            x       y       z     vdW  Elec       q    Type
REMARK                         _______ _______ _______ _____ _____    ______ ____
ROOT
ATOM      1  C   UNL     2       3.092   2.110  -1.740  0.00  0.00    +0.000 C 
ATOM      2  N   UNL     2       4.431   1.123  -0.922  0.00  0.00    +0.000 N 
ATOM      3  C   UNL     2       4.692  -0.800  -0.153  0.00  0.00    +0.000 C 
ATOM      4  C   UNL     2       4.148   0.043  -2.209  0.00  0.00    +0.000 C 
ENDROOT
BRANCH   2   5
ATOM      5  C   UNL     2       4.227   1.554   0.930  0.00  0.00    +0.000 C 
BRANCH   5   6
ATOM      6  C   UNL     2       5.557   1.464   1.360  0.00  0.00    +0.000 C 
BRANCH   6   7
ATOM      7  O   UNL     2       5.705   2.546   2.323  0.00  0.00    +0.000 OA
ATOM      8  H   UNL     2       5.342   3.324   1.860  0.00  0.00    +0.000 HD
ENDBRANCH   6   7
ENDBRANCH   5   6
ENDBRANCH   2   5
TORSDOF 3
REMARK  Name = Choline magnesium trisalicylate
REMARK  12 active torsions:
REMARK  status: ('A' for Active; 'I' for Inactive)
REMARK    1  A    between atoms: C_2  and  N_3
REMARK    2  A    between atoms: N_3  and  C_4
REMARK    3  A    between atoms: N_3  and  C_5
REMARK    4  A    between atoms: N_3  and  C_6
REMARK    5  A    between atoms: C_6  and  C_7
REMARK    6  A    between atoms: C_7  and  O_8
REMARK    7  A    between atoms: O_9  and  C_10
REMARK    8  A    between atoms: C_15  and  C_16
REMARK    9  A    between atoms: O_19  and  C_20
REMARK   10  A    between atoms: C_25  and  C_26
REMARK   11  A    between atoms: O_29  and  C_30
REMARK   12  A    between atoms: C_35  and  C_36
REMARK                            x       y       z     vdW  Elec       q    Type
REMARK                         _______ _______ _______ _____ _____    ______ ____
ROOT
ATOM      1  C   UNL     3       0.885  -0.025  -0.001  0.00  0.00    +0.000 A 
ATOM      2  C   UNL     3       0.224   1.180   0.016  0.00  0.00    +0.000 A 
ATOM      3  C   UNL     3      -1.157   1.212   0.000  0.00  0.00    +0.000 A 
ATOM      4  C   UNL     3      -1.877   0.042  -0.014  0.00  0.00    +0.000 A 
ATOM      5  C   UNL     3      -1.226  -1.172  -0.001  0.00  0.00    +0.000 A 
ATOM      6  C   UNL     3       0.171  -1.241   0.015  0.00  0.00    +0.000 A 
ENDROOT
BRANCH   6   7
ATOM      7  C   UNL     3       0.893  -2.578   0.048  0.00  0.00    +0.000 C 
ATOM      8  O   UNL     3       0.149  -3.787   0.064  0.00  0.00    +0.000 OA
ATOM      9  O   UNL     3       2.164  -2.614   0.062  0.00  0.00    +0.000 OA
ENDBRANCH   6   7
BRANCH   1  10
ATOM     10  O   UNL     3       2.237   0.005  -0.011  0.00  0.00    +0.000 OA
ATOM     11  H   UNL     3       2.687   0.827  -0.022  0.00  0.00    +0.000 HD
ENDBRANCH   1  10
TORSDOF 2
REMARK  Name = Choline magnesium trisalicylate
REMARK  12 active torsions:
REMARK  status: ('A' for Active; 'I' for Inactive)
REMARK    1  A    between atoms: C_2  and  N_3
REMARK    2  A    between atoms: N_3  and  C_4
REMARK    3  A    between atoms: N_3  and  C_5
REMARK    4  A    between atoms: N_3  and  C_6
REMARK    5  A    between atoms: C_6  and  C_7
REMARK    6  A    between atoms: C_7  and  O_8
REMARK    7  A    between atoms: O_9  and  C_10
REMARK    8  A    between atoms: C_15  and  C_16
REMARK    9  A    between atoms: O_19  and  C_20
REMARK   10  A    between atoms: C_25  and  C_26
REMARK   11  A    between atoms: O_29  and  C_30
REMARK   12  A    between atoms: C_35  and  C_36
REMARK                            x       y       z     vdW  Elec       q    Type
REMARK                         _______ _______ _______ _____ _____    ______ ____
ROOT
ATOM      1  C   UNL     4       0.885  -0.025  -0.001  0.00  0.00    +0.000 A 
ATOM      2  C   UNL     4       0.224   1.180   0.016  0.00  0.00    +0.000 A 
ATOM      3  C   UNL     4      -1.157   1.212   0.000  0.00  0.00    +0.000 A 
ATOM      4  C   UNL     4      -1.877   0.042  -0.014  0.00  0.00    +0.000 A 
ATOM      5  C   UNL     4      -1.226  -1.172  -0.001  0.00  0.00    +0.000 A 
ATOM      6  C   UNL     4       0.171  -1.241   0.015  0.00  0.00    +0.000 A 
ENDROOT
BRANCH   6   7
ATOM      7  C   UNL     4       0.893  -2.578   0.048  0.00  0.00    +0.000 C 
ATOM      8  O   UNL     4       0.149  -3.787   0.064  0.00  0.00    +0.000 OA
ATOM      9  O   UNL     4       2.164  -2.614   0.062  0.00  0.00    +0.000 OA
ENDBRANCH   6   7
BRANCH   1  10
ATOM     10  O   UNL     4       2.237   0.005  -0.011  0.00  0.00    +0.000 OA
ATOM     11  H   UNL     4       2.687   0.827  -0.022  0.00  0.00    +0.000 HD
ENDBRANCH   1  10
TORSDOF 2
REMARK  Name = Choline magnesium trisalicylate
REMARK  12 active torsions:
REMARK  status: ('A' for Active; 'I' for Inactive)
REMARK    1  A    between atoms: C_2  and  N_3
REMARK    2  A    between atoms: N_3  and  C_4
REMARK    3  A    between atoms: N_3  and  C_5
REMARK    4  A    between atoms: N_3  and  C_6
REMARK    5  A    between atoms: C_6  and  C_7
REMARK    6  A    between atoms: C_7  and  O_8
REMARK    7  A    between atoms: O_9  and  C_10
REMARK    8  A    between atoms: C_15  and  C_16
REMARK    9  A    between atoms: O_19  and  C_20
REMARK   10  A    between atoms: C_25  and  C_26
REMARK   11  A    between atoms: O_29  and  C_30
REMARK   12  A    between atoms: C_35  and  C_36
REMARK                            x       y       z     vdW  Elec       q    Type
REMARK                         _______ _______ _______ _____ _____    ______ ____
ROOT
ATOM      1  C   UNL     5       0.885  -0.025  -0.001  0.00  0.00    +0.000 A 
ATOM      2  C   UNL     5       0.224   1.180   0.016  0.00  0.00    +0.000 A 
ATOM      3  C   UNL     5      -1.157   1.212   0.000  0.00  0.00    +0.000 A 
ATOM      4  C   UNL     5      -1.877   0.042  -0.014  0.00  0.00    +0.000 A 
ATOM      5  C   UNL     5      -1.226  -1.172  -0.001  0.00  0.00    +0.000 A 
ATOM      6  C   UNL     5       0.171  -1.241   0.015  0.00  0.00    +0.000 A 
ENDROOT
BRANCH   6   7
ATOM      7  C   UNL     5       0.893  -2.578   0.048  0.00  0.00    +0.000 C 
ATOM      8  O   UNL     5       0.149  -3.787   0.064  0.00  0.00    +0.000 OA
ATOM      9  O   UNL     5       2.164  -2.614   0.062  0.00  0.00    +0.000 OA
ENDBRANCH   6   7
BRANCH   1  10
ATOM     10  O   UNL     5       2.237   0.005  -0.011  0.00  0.00    +0.000 OA
ATOM     11  H   UNL     5       2.687   0.827  -0.022  0.00  0.00    +0.000 HD
ENDBRANCH   1  10
TORSDOF 2
