REMARK  Name = Cianidanol
REMARK  6 active torsions:
REMARK  status: ('A' for Active; 'I' for Inactive)
REMARK    1  A    between atoms: O_1  and  C_2
REMARK    2  A    between atoms: C_5  and  O_6
REMARK    3  A    between atoms: C_8  and  O_9
REMARK    4  A    between atoms: C_13  and  C_14
REMARK    5  A    between atoms: C_17  and  O_18
REMARK    6  A    between atoms: C_19  and  O_20
REMARK                            x       y       z     vdW  Elec       q    Type
REMARK                         _______ _______ _______ _____ _____    ______ ____
ROOT
ATOM      1  C   UNL     1       2.333  -0.060  -0.059  0.00  0.00    +0.000 C 
ATOM      2  C   UNL     1       2.856   1.260   0.484  0.00  0.00    +0.000 C 
ATOM      3  C   UNL     1       4.333   1.226   0.717  0.00  0.00    +0.000 A 
ATOM      4  C   UNL     1       5.067   2.408   0.888  0.00  0.00    +0.000 A 
ATOM      5  C   UNL     1       6.444   2.384   1.096  0.00  0.00    +0.000 A 
ATOM      6  C   UNL     1       7.094   1.156   1.141  0.00  0.00    +0.000 A 
ATOM      7  C   UNL     1       6.388  -0.035   0.990  0.00  0.00    +0.000 A 
ATOM      8  C   UNL     1       5.003  -0.008   0.794  0.00  0.00    +0.000 A 
ATOM      9  O   UNL     1       4.371  -1.226   0.649  0.00  0.00    +0.000 OA
ATOM     10  C   UNL     1       2.935  -1.183   0.801  0.00  0.00    +0.000 C 
ENDROOT
BRANCH  10  11
ATOM     11  C   UNL     1       2.304  -2.534   0.469  0.00  0.00    +0.000 A 
ATOM     12  C   UNL     1       1.551  -3.204   1.456  0.00  0.00    +0.000 A 
ATOM     13  C   UNL     1       0.887  -4.405   1.177  0.00  0.00    +0.000 A 
ATOM     14  C   UNL     1       0.969  -4.941  -0.100  0.00  0.00    +0.000 A 
ATOM     15  C   UNL     1       1.696  -4.284  -1.090  0.00  0.00    +0.000 A 
ATOM     16  C   UNL     1       2.365  -3.093  -0.819  0.00  0.00    +0.000 A 
BRANCH  14  17
ATOM     17  O   UNL     1       0.342  -6.112  -0.427  0.00  0.00    +0.000 OA
ATOM     18  H   UNL     1      -0.097  -6.450   0.373  0.00  0.00    +0.000 HD
ENDBRANCH  14  17
BRANCH  15  19
ATOM     19  O   UNL     1       1.753  -4.803  -2.354  0.00  0.00    +0.000 OA
ATOM     20  H   UNL     1       1.237  -5.632  -2.304  0.00  0.00    +0.000 HD
ENDBRANCH  15  19
ENDBRANCH  10  11
BRANCH   1  21
ATOM     21  O   UNL     1       0.905  -0.017   0.009  0.00  0.00    +0.000 OA
ATOM     22  H   UNL     1       0.603   0.616  -0.665  0.00  0.00    +0.000 HD
ENDBRANCH   1  21
BRANCH   4  23
ATOM     23  O   UNL     1       4.497   3.652   0.860  0.00  0.00    +0.000 OA
ATOM     24  H   UNL     1       3.534   3.577   0.770  0.00  0.00    +0.000 HD
ENDBRANCH   4  23
BRANCH   6  25
ATOM     25  O   UNL     1       8.444   1.090   1.340  0.00  0.00    +0.000 OA
ATOM     26  H   UNL     1       8.792   1.992   1.433  0.00  0.00    +0.000 HD
ENDBRANCH   6  25
TORSDOF 6
