REMARK  Name = Ciclopirox
REMARK  3 active torsions:
REMARK  status: ('A' for Active; 'I' for Inactive)
REMARK    1  A    between atoms: C_1  and  C_2
REMARK    2  A    between atoms: N_6  and  O_7
REMARK    3  A    between atoms: C_8  and  C_10
REMARK                            x       y       z     vdW  Elec       q    Type
REMARK                         _______ _______ _______ _____ _____    ______ ____
ROOT
ATOM      1  C   UNL     1       0.930   0.040  -0.050  0.00  0.00    +0.000 C 
ATOM      2  C   UNL     1       2.426   0.123  -0.066  0.00  0.00    +0.000 A 
ATOM      3  C   UNL     1       3.076   1.299  -0.053  0.00  0.00    +0.000 A 
ATOM      4  C   UNL     1       4.559   1.331  -0.056  0.00  0.00    +0.000 A 
ATOM      5  O   UNL     1       5.169   2.400  -0.039  0.00  0.00    +0.000 OA
ATOM      6  N   UNL     1       5.173   0.098  -0.069  0.00  0.00    +0.000 N 
ATOM      7  C   UNL     1       4.527  -1.120  -0.083  0.00  0.00    +0.000 A 
ATOM      8  C   UNL     1       3.178  -1.118  -0.087  0.00  0.00    +0.000 A 
ENDROOT
BRANCH   7   9
ATOM      9  C   UNL     1       5.337  -2.402  -0.015  0.00  0.00    +0.000 C 
ATOM     10  C   UNL     1       5.012  -3.133   1.299  0.00  0.00    +0.000 C 
ATOM     11  C   UNL     1       5.781  -4.439   1.430  0.00  0.00    +0.000 C 
ATOM     12  C   UNL     1       5.548  -5.340   0.222  0.00  0.00    +0.000 C 
ATOM     13  C   UNL     1       5.904  -4.623  -1.077  0.00  0.00    +0.000 C 
ATOM     14  C   UNL     1       5.116  -3.321  -1.230  0.00  0.00    +0.000 C 
ENDBRANCH   7   9
BRANCH   6  15
ATOM     15  O   UNL     1       6.584   0.092  -0.041  0.00  0.00    +0.000 OA
ATOM     16  H   UNL     1       6.785   1.051  -0.033  0.00  0.00    +0.000 HD
ENDBRANCH   6  15
TORSDOF 2
