REMARK  Name = Ciclesonide
REMARK  11 active torsions:
REMARK  status: ('A' for Active; 'I' for Inactive)
REMARK    1  A    between atoms: C_16  and  C_17
REMARK    2  A    between atoms: C_20  and  O_21
REMARK    3  A    between atoms: C_23  and  C_24
REMARK    4  A    between atoms: C_25  and  C_35
REMARK    5  A    between atoms: C_27  and  C_29
REMARK    6  A    between atoms: C_35  and  C_37
REMARK    7  A    between atoms: C_37  and  O_38
REMARK    8  A    between atoms: O_38  and  C_39
REMARK    9  A    between atoms: C_39  and  C_41
REMARK   10  A    between atoms: C_41  and  C_42
REMARK   11  A    between atoms: C_41  and  C_43
REMARK                            x       y       z     vdW  Elec       q    Type
REMARK                         _______ _______ _______ _____ _____    ______ ____
ROOT
ATOM      1  C   UNL     1       2.147  -0.147  -0.158  0.00  0.00    +0.000 C 
ATOM      2  C   UNL     1       1.891   0.038   1.334  0.00  0.00    +0.000 C 
ATOM      3  C   UNL     1       3.251   0.011   1.690  0.00  0.00    +0.000 C 
ATOM      4  C   UNL     1       4.096   1.755   0.986  0.00  0.00    +0.000 C 
ATOM      5  C   UNL     1       3.701   2.991   1.698  0.00  0.00    +0.000 C 
ATOM      6  C   UNL     1       4.466   3.983   0.895  0.00  0.00    +0.000 C 
ATOM      7  C   UNL     1       6.016   3.806   1.355  0.00  0.00    +0.000 C 
ATOM      8  C   UNL     1       6.741   4.639   2.124  0.00  0.00    +0.000 C 
ATOM      9  C   UNL     1       6.088   5.788   1.570  0.00  0.00    +0.000 C 
ATOM     10  O   UNL     1       5.244   6.382   2.216  0.00  0.00    +0.000 OA
ATOM     11  C   UNL     1       6.480   5.798  -0.025  0.00  0.00    +0.000 C 
ATOM     12  C   UNL     1       6.679   4.500  -0.593  0.00  0.00    +0.000 C 
ATOM     13  C   UNL     1       6.870   3.191   0.259  0.00  0.00    +0.000 C 
ATOM     14  C   UNL     1       8.465   3.263   0.327  0.00  0.00    +0.000 C 
ATOM     15  C   UNL     1       6.188   1.648   0.807  0.00  0.00    +0.000 C 
ATOM     16  C   UNL     1       6.555  -0.459   0.509  0.00  0.00    +0.000 C 
ATOM     17  C   UNL     1       5.706  -1.664   1.060  0.00  0.00    +0.000 C 
ATOM     18  C   UNL     1       3.887  -1.663   0.932  0.00  0.00    +0.000 C 
ATOM     19  C   UNL     1       4.184  -3.090   1.508  0.00  0.00    +0.000 C 
ATOM     20  C   UNL     1       2.993  -1.431  -0.462  0.00  0.00    +0.000 C 
ATOM     21  O   UNL     1       3.917  -1.062  -1.517  0.00  0.00    +0.000 OA
ATOM     22  C   UNL     1       4.052   0.333  -1.443  0.00  0.00    +0.000 C 
ATOM     23  O   UNL     1       2.738   0.814  -1.028  0.00  0.00    +0.000 OA
ENDROOT
BRANCH  22  24
ATOM     24  C   UNL     1       5.281   0.772  -0.494  0.00  0.00    +0.000 C 
ATOM     25  C   UNL     1       7.168   0.713  -0.985  0.00  0.00    +0.000 C 
ATOM     26  C   UNL     1       8.252   0.710   0.652  0.00  0.00    +0.000 C 
ATOM     27  C   UNL     1       7.665   0.174   2.394  0.00  0.00    +0.000 C 
ATOM     28  C   UNL     1       6.181   0.400   2.825  0.00  0.00    +0.000 C 
ATOM     29  C   UNL     1       5.220   0.398   1.595  0.00  0.00    +0.000 C 
ENDBRANCH  22  24
BRANCH  16  30
ATOM     30  O   UNL     1       7.865  -1.344   0.421  0.00  0.00    +0.000 OA
ATOM     31  H   UNL     1       8.520  -1.194   1.129  0.00  0.00    +0.000 HD
ENDBRANCH  16  30
BRANCH  20  32
ATOM     32  C   UNL     1       1.826  -2.379  -1.033  0.00  0.00    +0.000 C 
ATOM     33  O   UNL     1       1.976  -3.602  -1.072  0.00  0.00    +0.000 OA
BRANCH  32  34
ATOM     34  C   UNL     1       0.455  -1.736  -1.639  0.00  0.00    +0.000 C 
BRANCH  34  35
ATOM     35  O   UNL     1      -0.541  -2.688  -2.081  0.00  0.00    +0.000 OA
BRANCH  35  36
ATOM     36  C   UNL     1      -1.754  -2.161  -2.449  0.00  0.00    +0.000 C 
ATOM     37  O   UNL     1      -1.997  -0.960  -2.490  0.00  0.00    +0.000 OA
BRANCH  36  38
ATOM     38  C   UNL     1      -2.769  -3.248  -2.827  0.00  0.00    +0.000 C 
ATOM     39  C   UNL     1      -3.076  -4.169  -1.651  0.00  0.00    +0.000 C 
ATOM     40  C   UNL     1      -4.083  -2.612  -3.301  0.00  0.00    +0.000 C 
ENDBRANCH  36  38
ENDBRANCH  35  36
ENDBRANCH  34  35
ENDBRANCH  32  34
ENDBRANCH  20  32
TORSDOF 7
