REMARK  Name = Cidofovir
REMARK  9 active torsions:
REMARK  status: ('A' for Active; 'I' for Inactive)
REMARK    1  A    between atoms: N_6  and  C_7
REMARK    2  A    between atoms: C_7  and  C_8
REMARK    3  A    between atoms: C_8  and  C_9
REMARK    4  A    between atoms: C_8  and  O_11
REMARK    5  A    between atoms: C_9  and  O_10
REMARK    6  A    between atoms: O_11  and  C_12
REMARK    7  A    between atoms: C_12  and  P_13
REMARK    8  A    between atoms: P_13  and  O_14
REMARK    9  A    between atoms: P_13  and  O_15
REMARK                            x       y       z     vdW  Elec       q    Type
REMARK                         _______ _______ _______ _____ _____    ______ ____
ROOT
ATOM      1  C   UNL     1       7.143  -1.363  -0.083  0.00  0.00    +0.000 C 
ENDROOT
BRANCH   1   2
ATOM      2  C   UNL     1       6.561   0.034   0.229  0.00  0.00    +0.000 C 
BRANCH   2   8
ATOM      3  N   UNL     1       1.078   0.099  -0.278  0.00  0.00    +0.000 N 
ATOM      4  C   UNL     1       2.422   0.122  -0.051  0.00  0.00    +0.000 A 
ATOM      5  N   UNL     1       2.970  -1.010   0.257  0.00  0.00    +0.000 NA
ATOM      6  C   UNL     1       4.306  -1.061   0.509  0.00  0.00    +0.000 A 
ATOM      7  O   UNL     1       4.796  -2.166   0.788  0.00  0.00    +0.000 OA
ATOM      8  N   UNL     1       5.087   0.096   0.372  0.00  0.00    +0.000 N 
ATOM      9  C   UNL     1       4.471   1.319   0.203  0.00  0.00    +0.000 A 
ATOM     10  C   UNL     1       3.175   1.389  -0.099  0.00  0.00    +0.000 A 
ATOM     11  H   UNL     1       0.628  -0.756   0.041  0.00  0.00    +0.000 HD
ATOM     12  H   UNL     1       0.542   0.942  -0.126  0.00  0.00    +0.000 HD
ENDBRANCH   2   8
ENDBRANCH   1   2
BRANCH   1  13
ATOM     13  C   UNL     1       6.690  -1.933  -1.459  0.00  0.00    +0.000 C 
BRANCH  13  14
ATOM     14  O   UNL     1       5.314  -2.018  -1.748  0.00  0.00    +0.000 OA
ATOM     15  H   UNL     1       4.925  -2.623  -1.079  0.00  0.00    +0.000 HD
ENDBRANCH  13  14
ENDBRANCH   1  13
BRANCH   1  16
ATOM     16  O   UNL     1       8.581  -1.328  -0.079  0.00  0.00    +0.000 OA
BRANCH  16  17
ATOM     17  C   UNL     1       9.090  -2.669  -0.141  0.00  0.00    +0.000 C 
BRANCH  17  18
ATOM     18  P   UNL     1      10.920  -2.668  -0.149  0.00  0.00    +0.000 P 
ATOM     19  O   UNL     1      12.469  -2.667  -0.155  0.00  0.00    +0.000 OA
BRANCH  18  20
ATOM     20  O   UNL     1      10.835  -1.573  -1.385  0.00  0.00    +0.000 OA
ATOM     21  H   UNL     1       9.970  -1.405  -1.798  0.00  0.00    +0.000 HD
ENDBRANCH  18  20
BRANCH  18  22
ATOM     22  O   UNL     1      10.838  -1.652   1.153  0.00  0.00    +0.000 OA
ATOM     23  H   UNL     1       9.959  -1.450   1.519  0.00  0.00    +0.000 HD
ENDBRANCH  18  22
ENDBRANCH  17  18
ENDBRANCH  16  17
ENDBRANCH   1  16
TORSDOF 9
