REMARK  Name = Cilastatin
REMARK  16 active torsions:
REMARK  status: ('A' for Active; 'I' for Inactive)
REMARK    1  A    between atoms: C_1  and  C_2
REMARK    2  A    between atoms: C_2  and  C_3
REMARK    3  A    between atoms: C_5  and  C_6
REMARK    4  A    between atoms: N_8  and  C_9
REMARK    5  A    between atoms: C_9  and  C_22
REMARK    6  A    between atoms: C_10  and  C_11
REMARK    7  A    between atoms: C_11  and  C_12
REMARK    8  A    between atoms: C_12  and  C_13
REMARK    9  A    between atoms: C_13  and  C_14
REMARK   10  A    between atoms: C_14  and  S_15
REMARK   11  A    between atoms: S_15  and  C_16
REMARK   12  A    between atoms: C_16  and  C_17
REMARK   13  A    between atoms: C_17  and  N_18
REMARK   14  A    between atoms: C_17  and  C_19
REMARK   15  A    between atoms: C_19  and  O_20
REMARK   16  A    between atoms: C_22  and  O_23
REMARK                            x       y       z     vdW  Elec       q    Type
REMARK                         _______ _______ _______ _____ _____    ______ ____
ROOT
ATOM      1  C   UNK A   1      -8.983  -1.305  -4.488  0.00  0.00    +0.000 C 
ATOM      2  C   UNK A   1      -9.030   0.016  -4.794  0.00  0.00    +0.000 C 
ENDROOT
BRANCH   1   5
ATOM      3  C   UNK A   0      -6.627  -1.463  -3.538  0.00  0.00    +0.000 C 
ATOM      4  O   UNK A   0      -6.178  -0.342  -3.696  0.00  0.00    +0.000 OA
ATOM      5  N   UNK A   1      -7.886  -1.979  -3.885  0.00  0.00    +0.000 N 
ATOM      6  H   UNK A   1      -8.002  -2.956  -3.672  0.00  0.00    +0.000 HD
BRANCH   3  11
ATOM      7  C   UNK A   0      -4.944  -3.171  -0.540  0.00  0.00    +0.000 C 
ATOM      8  C   UNK A   0      -5.278  -1.994  -1.393  0.00  0.00    +0.000 C 
ATOM      9  C   UNK A   0      -6.021  -0.874  -0.684  0.00  0.00    +0.000 C 
ATOM     10  C   UNK A   0      -4.302  -1.626  -2.479  0.00  0.00    +0.000 C 
ATOM     11  C   UNK A   0      -5.640  -2.313  -2.840  0.00  0.00    +0.000 C 
ENDBRANCH   3  11
ENDBRANCH   1   5
BRANCH   1  12
ATOM     12  C   UNK A   1     -10.288  -1.999  -4.875  0.00  0.00    +0.000 C 
ATOM     13  O   UNK A   1     -11.232  -1.418  -5.399  0.00  0.00    +0.000 OA
BRANCH  12  14
ATOM     14  O   UNK A   1     -10.382  -3.318  -4.619  0.00  0.00    +0.000 OA
ATOM     15  H   UNK A   1      -9.637  -3.772  -4.210  0.00  0.00    +0.000 HD
ENDBRANCH  12  14
ENDBRANCH   1  12
BRANCH   2  16
ATOM     16  C   UNK A   1      -7.922   0.962  -4.536  0.00  0.00    +0.000 C 
BRANCH  16  17
ATOM     17  C   UNK A   1      -7.929   2.426  -4.862  0.00  0.00    +0.000 C 
BRANCH  17  18
ATOM     18  C   UNK A   1      -6.567   3.024  -4.425  0.00  0.00    +0.000 C 
BRANCH  18  19
ATOM     19  C   UNK A   1      -6.546   4.511  -4.745  0.00  0.00    +0.000 C 
BRANCH  19  20
ATOM     20  S   UNK A   1      -4.983   5.285  -4.194  0.00  0.00    +0.000 S 
BRANCH  20  21
ATOM     21  C   UNK A   1      -5.268   7.007  -4.777  0.00  0.00    +0.000 C 
BRANCH  21  22
ATOM     22  C   UNK A   1      -4.356   8.084  -4.137  0.00  0.00    +0.000 C 
BRANCH  22  23
ATOM     23  N   UNK A   1      -4.296   8.024  -2.663  0.00  0.00    +0.000 NA
ATOM     24  H   UNK A   1      -5.210   8.016  -2.224  0.00  0.00    +0.000 HD
ATOM     25  H   UNK A   1      -3.632   8.676  -2.259  0.00  0.00    +0.000 HD
ENDBRANCH  22  23
BRANCH  22  26
ATOM     26  C   UNK A   1      -4.860   9.462  -4.615  0.00  0.00    +0.000 C 
ATOM     27  O   UNK A   1      -4.980   9.769  -5.793  0.00  0.00    +0.000 OA
BRANCH  26  28
ATOM     28  O   UNK A   1      -5.189  10.330  -3.626  0.00  0.00    +0.000 OA
ATOM     29  H   UNK A   1      -5.052   9.955  -2.736  0.00  0.00    +0.000 HD
ENDBRANCH  26  28
ENDBRANCH  22  26
ENDBRANCH  21  22
ENDBRANCH  20  21
ENDBRANCH  19  20
ENDBRANCH  18  19
ENDBRANCH  17  18
ENDBRANCH  16  17
ENDBRANCH   2  16
TORSDOF 14
