REMARK  Name = Cilazapril
REMARK  11 active torsions:
REMARK  status: ('A' for Active; 'I' for Inactive)
REMARK    1  A    between atoms: C_1  and  C_2
REMARK    2  A    between atoms: C_2  and  O_3
REMARK    3  A    between atoms: O_3  and  C_4
REMARK    4  A    between atoms: C_4  and  C_6
REMARK    5  A    between atoms: C_6  and  C_7
REMARK    6  A    between atoms: C_6  and  N_15
REMARK    7  A    between atoms: C_7  and  C_8
REMARK    8  A    between atoms: C_8  and  C_9
REMARK    9  A    between atoms: N_15  and  C_16
REMARK   10  A    between atoms: C_24  and  C_28
REMARK   11  A    between atoms: C_28  and  O_29
REMARK                            x       y       z     vdW  Elec       q    Type
REMARK                         _______ _______ _______ _____ _____    ______ ____
ROOT
ATOM      1  N   UNL     1       6.834  -5.042  -0.299  0.00  0.00    +0.000 NA
ATOM      2  H   UNL     1       7.195  -4.409  -1.012  0.00  0.00    +0.000 HD
ENDROOT
BRANCH   1   3
ATOM      3  C   UNL     1       6.880  -4.422   1.072  0.00  0.00    +0.000 C 
ATOM      4  C   UNL     1       6.621  -5.594   1.993  0.00  0.00    +0.000 C 
ATOM      5  C   UNL     1       5.894  -5.151   3.230  0.00  0.00    +0.000 C 
ATOM      6  C   UNL     1       6.946  -4.699   4.201  0.00  0.00    +0.000 C 
ATOM      7  N   UNL     1       7.357  -3.353   3.884  0.00  0.00    +0.000 NA
ATOM      8  C   UNL     1       6.416  -2.281   4.164  0.00  0.00    +0.000 C 
ATOM      9  C   UNL     1       7.206  -1.007   4.470  0.00  0.00    +0.000 C 
ATOM     10  C   UNL     1       8.259  -0.734   3.385  0.00  0.00    +0.000 C 
ATOM     11  C   UNL     1       9.161  -1.969   3.133  0.00  0.00    +0.000 C 
ATOM     12  N   UNL     1       8.254  -3.109   2.810  0.00  0.00    +0.000 N 
ATOM     13  C   UNL     1       8.160  -3.603   1.473  0.00  0.00    +0.000 C 
ATOM     14  O   UNL     1       8.974  -3.245   0.612  0.00  0.00    +0.000 OA
BRANCH  11  15
ATOM     15  C   UNL     1      10.091  -2.341   4.319  0.00  0.00    +0.000 C 
ATOM     16  O   UNL     1      10.455  -3.476   4.583  0.00  0.00    +0.000 OA
BRANCH  15  17
ATOM     17  O   UNL     1      10.568  -1.297   5.047  0.00  0.00    +0.000 OA
ATOM     18  H   UNL     1      10.299  -0.400   4.787  0.00  0.00    +0.000 HD
ENDBRANCH  15  17
ENDBRANCH  11  15
ENDBRANCH   1   3
BRANCH   1  19
ATOM     19  C   UNL     1       5.432  -5.477  -0.633  0.00  0.00    +0.000 C 
BRANCH  19  20
ATOM     20  C   UNL     1       5.304  -6.448  -1.813  0.00  0.00    +0.000 C 
ATOM     21  O   UNL     1       4.441  -6.375  -2.673  0.00  0.00    +0.000 OA
BRANCH  20  22
ATOM     22  O   UNL     1       6.168  -7.504  -1.679  0.00  0.00    +0.000 OA
BRANCH  22  24
ATOM     23  C   UNL     1       7.151  -9.501  -2.596  0.00  0.00    +0.000 C 
ATOM     24  C   UNL     1       6.081  -8.439  -2.759  0.00  0.00    +0.000 C 
ENDBRANCH  22  24
ENDBRANCH  20  22
ENDBRANCH  19  20
BRANCH  19  25
ATOM     25  C   UNL     1       4.382  -4.372  -0.609  0.00  0.00    +0.000 C 
BRANCH  25  26
ATOM     26  C   UNL     1       4.764  -2.956  -1.046  0.00  0.00    +0.000 C 
BRANCH  26  27
ATOM     27  C   UNL     1       3.495  -2.141  -1.066  0.00  0.00    +0.000 A 
ATOM     28  C   UNL     1       3.117  -1.430  -2.204  0.00  0.00    +0.000 A 
ATOM     29  C   UNL     1       1.929  -0.702  -2.195  0.00  0.00    +0.000 A 
ATOM     30  C   UNL     1       1.079  -0.745  -1.087  0.00  0.00    +0.000 A 
ATOM     31  C   UNL     1       1.444  -1.458   0.048  0.00  0.00    +0.000 A 
ATOM     32  C   UNL     1       2.661  -2.120   0.069  0.00  0.00    +0.000 A 
ENDBRANCH  26  27
ENDBRANCH  25  26
ENDBRANCH  19  25
ENDBRANCH   1  19
TORSDOF 10
