REMARK  Name = Cimetidine
REMARK  8 active torsions:
REMARK  status: ('A' for Active; 'I' for Inactive)
REMARK    1  A    between atoms: C_1  and  N_2
REMARK    2  A    between atoms: N_4  and  C_5
REMARK    3  A    between atoms: C_5  and  C_6
REMARK    4  A    between atoms: C_6  and  S_7
REMARK    5  A    between atoms: S_7  and  C_8
REMARK    6  A    between atoms: C_8  and  C_9
REMARK    7  A    between atoms: C_10  and  C_11
REMARK    8  A    between atoms: N_15  and  C_16
REMARK                            x       y       z     vdW  Elec       q    Type
REMARK                         _______ _______ _______ _____ _____    ______ ____
ROOT
ATOM      1  C   UNL     1       1.096   1.656   2.136  0.00  0.00    +0.000 C 
ENDROOT
BRANCH   1   5
ATOM      2  C   UNL     1       1.145  -0.010  -0.123  0.00  0.00    +0.000 C 
ATOM      3  N   UNL     1       2.561   0.154   0.095  0.00  0.00    +0.000 N 
ATOM      4  C   UNL     1       3.243   0.865   1.054  0.00  0.00    +0.000 C 
ATOM      5  N   UNL     1       2.529   1.569   1.992  0.00  0.00    +0.000 N 
ATOM      6  N   UNL     1       4.549   0.826   1.007  0.00  0.00    +0.000 NA
ATOM      7  H   UNL     1       3.148  -0.343  -0.568  0.00  0.00    +0.000 HD
ATOM      8  H   UNL     1       3.060   2.073   2.692  0.00  0.00    +0.000 HD
BRANCH   6   9
ATOM      9  C   UNL     1       5.248   1.506   1.922  0.00  0.00    +0.000 C 
ATOM     10  N   UNL     1       5.815   2.114   2.741  0.00  0.00    +0.000 NA
ENDBRANCH   6   9
ENDBRANCH   1   5
BRANCH   1  11
ATOM     11  C   UNL     1       0.600   2.490   3.308  0.00  0.00    +0.000 C 
BRANCH  11  12
ATOM     12  S   UNL     1      -1.200   2.230   3.298  0.00  0.00    +0.000 S 
BRANCH  12  13
ATOM     13  C   UNL     1      -1.825   3.408   4.554  0.00  0.00    +0.000 C 
BRANCH  13  14
ATOM     14  C   UNL     1      -3.333   3.448   4.496  0.00  0.00    +0.000 A 
ATOM     15  C   UNL     1      -4.165   3.476   3.385  0.00  0.00    +0.000 A 
ATOM     16  C   UNL     1      -3.888   3.468   1.930  0.00  0.00    +0.000 C 
ATOM     17  N   UNL     1      -5.441   3.471   3.887  0.00  0.00    +0.000 N 
ATOM     18  C   UNL     1      -5.351   3.480   5.248  0.00  0.00    +0.000 A 
ATOM     19  N   UNL     1      -4.099   3.469   5.649  0.00  0.00    +0.000 NA
ATOM     20  H   UNL     1      -6.295   3.464   3.347  0.00  0.00    +0.000 HD
ENDBRANCH  13  14
ENDBRANCH  12  13
ENDBRANCH  11  12
ENDBRANCH   1  11
TORSDOF 6
