REMARK  Name = Cinacalcet
REMARK  8 active torsions:
REMARK  status: ('A' for Active; 'I' for Inactive)
REMARK    1  A    between atoms: C_1  and  C_2
REMARK    2  A    between atoms: C_2  and  N_3
REMARK    3  A    between atoms: C_2  and  C_17
REMARK    4  A    between atoms: N_3  and  C_4
REMARK    5  A    between atoms: C_4  and  C_5
REMARK    6  A    between atoms: C_5  and  C_6
REMARK    7  A    between atoms: C_6  and  C_7
REMARK    8  A    between atoms: C_9  and  C_13
REMARK                            x       y       z     vdW  Elec       q    Type
REMARK                         _______ _______ _______ _____ _____    ______ ____
ROOT
ATOM      1  N   UNL     1       2.971  -1.374  -0.341  0.00  0.00    +0.000 NA
ATOM      2  H   UNL     1       3.993  -1.359  -0.336  0.00  0.00    +0.000 HD
ENDROOT
BRANCH   1   4
ATOM      3  C   UNL     1       0.920  -0.067  -0.116  0.00  0.00    +0.000 C 
ATOM      4  C   UNL     1       2.444  -0.006  -0.108  0.00  0.00    +0.000 C 
BRANCH   4   5
ATOM      5  C   UNL     1       2.881   1.031  -1.152  0.00  0.00    +0.000 A 
ATOM      6  C   UNL     1       3.777   0.604  -2.185  0.00  0.00    +0.000 A 
ATOM      7  C   UNL     1       4.260   1.509  -3.111  0.00  0.00    +0.000 A 
ATOM      8  C   UNL     1       3.778   2.804  -3.074  0.00  0.00    +0.000 A 
ATOM      9  C   UNL     1       2.913   3.253  -2.054  0.00  0.00    +0.000 A 
ATOM     10  C   UNL     1       2.631   4.603  -1.941  0.00  0.00    +0.000 A 
ATOM     11  C   UNL     1       1.962   5.148  -0.820  0.00  0.00    +0.000 A 
ATOM     12  C   UNL     1       0.817   4.572  -0.334  0.00  0.00    +0.000 A 
ATOM     13  C   UNL     1       1.267   3.232  -0.286  0.00  0.00    +0.000 A 
ATOM     14  C   UNL     1       2.341   2.436  -1.105  0.00  0.00    +0.000 A 
ENDBRANCH   4   5
ENDBRANCH   1   4
BRANCH   1  15
ATOM     15  C   UNL     1       2.509  -2.301   0.684  0.00  0.00    +0.000 C 
BRANCH  15  16
ATOM     16  C   UNL     1       3.010  -3.688   0.379  0.00  0.00    +0.000 C 
BRANCH  16  17
ATOM     17  C   UNL     1       2.498  -4.649   1.442  0.00  0.00    +0.000 C 
BRANCH  17  18
ATOM     18  C   UNL     1       2.989  -6.039   1.170  0.00  0.00    +0.000 A 
ATOM     19  C   UNL     1       2.119  -7.120   1.272  0.00  0.00    +0.000 A 
ATOM     20  C   UNL     1       2.636  -8.419   1.229  0.00  0.00    +0.000 A 
ATOM     21  C   UNL     1       3.976  -8.631   0.885  0.00  0.00    +0.000 A 
ATOM     22  C   UNL     1       4.835  -7.557   0.739  0.00  0.00    +0.000 A 
ATOM     23  C   UNL     1       4.345  -6.271   0.903  0.00  0.00    +0.000 A 
BRANCH  20  24
ATOM     24  C   UNL     1       1.799  -9.572   1.688  0.00  0.00    +0.000 C 
ATOM     25  F   UNL     1       1.375  -9.406   2.973  0.00  0.00    +0.000 F 
ATOM     26  F   UNL     1       0.684  -9.750   0.935  0.00  0.00    +0.000 F 
ATOM     27  F   UNL     1       2.471 -10.757   1.674  0.00  0.00    +0.000 F 
ENDBRANCH  20  24
ENDBRANCH  17  18
ENDBRANCH  16  17
ENDBRANCH  15  16
ENDBRANCH   1  15
TORSDOF 7
