REMARK  Name = Cinchocaine
REMARK  13 active torsions:
REMARK  status: ('A' for Active; 'I' for Inactive)
REMARK    1  A    between atoms: C_1  and  C_2
REMARK    2  A    between atoms: C_2  and  C_3
REMARK    3  A    between atoms: C_3  and  C_4
REMARK    4  A    between atoms: C_4  and  O_5
REMARK    5  A    between atoms: O_5  and  C_6
REMARK    6  A    between atoms: C_14  and  C_16
REMARK    7  A    between atoms: N_18  and  C_19
REMARK    8  A    between atoms: C_19  and  C_20
REMARK    9  A    between atoms: C_20  and  N_21
REMARK   10  A    between atoms: N_21  and  C_22
REMARK   11  A    between atoms: N_21  and  C_24
REMARK   12  A    between atoms: C_22  and  C_23
REMARK   13  A    between atoms: C_24  and  C_25
REMARK                            x       y       z     vdW  Elec       q    Type
REMARK                         _______ _______ _______ _____ _____    ______ ____
ROOT
ATOM      1  C   UNL     1       6.338   2.197   2.001  0.00  0.00    +0.000 A 
ATOM      2  N   UNL     1       7.098   2.179   0.889  0.00  0.00    +0.000 NA
ATOM      3  C   UNL     1       8.425   2.405   1.010  0.00  0.00    +0.000 A 
ATOM      4  C   UNL     1       9.208   2.393  -0.149  0.00  0.00    +0.000 A 
ATOM      5  C   UNL     1      10.595   2.592  -0.149  0.00  0.00    +0.000 A 
ATOM      6  C   UNL     1      11.236   2.832   1.035  0.00  0.00    +0.000 A 
ATOM      7  C   UNL     1      10.475   2.900   2.183  0.00  0.00    +0.000 A 
ATOM      8  C   UNL     1       9.064   2.670   2.242  0.00  0.00    +0.000 A 
ATOM      9  C   UNL     1       8.223   2.695   3.401  0.00  0.00    +0.000 A 
ATOM     10  C   UNL     1       6.844   2.454   3.260  0.00  0.00    +0.000 A 
ENDROOT
BRANCH   9  11
ATOM     11  C   UNL     1       8.687   2.992   4.814  0.00  0.00    +0.000 C 
ATOM     12  O   UNL     1       7.925   2.864   5.751  0.00  0.00    +0.000 OA
ATOM     13  N   UNL     1      10.024   3.346   4.984  0.00  0.00    +0.000 N 
ATOM     14  H   UNL     1      10.613   2.743   4.460  0.00  0.00    +0.000 HD
BRANCH  13  15
ATOM     15  C   UNL     1      10.601   3.413   6.294  0.00  0.00    +0.000 C 
BRANCH  15  16
ATOM     16  C   UNL     1      12.148   3.475   6.316  0.00  0.00    +0.000 C 
BRANCH  16  17
ATOM     17  N   UNL     1      12.721   3.562   7.679  0.00  0.00    +0.000 NA
BRANCH  17  18
ATOM     18  C   UNL     1      12.426   2.377   8.518  0.00  0.00    +0.000 C 
ATOM     19  C   UNL     1      10.969   2.103   8.878  0.00  0.00    +0.000 C 
ENDBRANCH  17  18
BRANCH  17  20
ATOM     20  C   UNL     1      14.188   3.777   7.591  0.00  0.00    +0.000 C 
ATOM     21  C   UNL     1      14.835   4.032   8.954  0.00  0.00    +0.000 C 
ENDBRANCH  17  20
ENDBRANCH  16  17
ENDBRANCH  15  16
ENDBRANCH  13  15
ENDBRANCH   9  11
BRANCH   1  22
ATOM     22  O   UNL     1       4.963   2.082   1.889  0.00  0.00    +0.000 OA
BRANCH  22  23
ATOM     23  C   UNL     1       4.542   1.076   0.958  0.00  0.00    +0.000 C 
BRANCH  23  24
ATOM     24  C   UNL     1       3.006   1.045   0.939  0.00  0.00    +0.000 C 
BRANCH  24  26
ATOM     25  C   UNL     1       0.932  -0.060   0.016  0.00  0.00    +0.000 C 
ATOM     26  C   UNL     1       2.455  -0.050   0.023  0.00  0.00    +0.000 C 
ENDBRANCH  24  26
ENDBRANCH  23  24
ENDBRANCH  22  23
ENDBRANCH   1  22
TORSDOF 10
