REMARK  Name = Cinnamaldehyde
REMARK  2 active torsions:
REMARK  status: ('A' for Active; 'I' for Inactive)
REMARK    1  A    between atoms: C_2  and  C_3
REMARK    2  A    between atoms: C_4  and  C_5
REMARK                            x       y       z     vdW  Elec       q    Type
REMARK                         _______ _______ _______ _____ _____    ______ ____
ROOT
ATOM      1  C   UNL     1       5.098   1.769  -2.049  0.00  0.00    +0.000 A 
ATOM      2  C   UNL     1       6.201   1.318  -2.784  0.00  0.00    +0.000 A 
ATOM      3  C   UNL     1       6.888   2.196  -3.632  0.00  0.00    +0.000 A 
ATOM      4  C   UNL     1       6.445   3.509  -3.794  0.00  0.00    +0.000 A 
ATOM      5  C   UNL     1       5.351   3.965  -3.065  0.00  0.00    +0.000 A 
ATOM      6  C   UNL     1       4.698   3.106  -2.184  0.00  0.00    +0.000 A 
ENDROOT
BRANCH   1   8
ATOM      7  C   UNL     1       3.048   0.876  -1.068  0.00  0.00    +0.000 C 
ATOM      8  C   UNL     1       4.389   0.889  -1.108  0.00  0.00    +0.000 C 
BRANCH   7  10
ATOM      9  O   UNL     1       1.071   0.090  -0.068  0.00  0.00    +0.000 OA
ATOM     10  C   UNL     1       2.299   0.074  -0.087  0.00  0.00    +0.000 C 
ENDBRANCH   7  10
ENDBRANCH   1   8
TORSDOF 2
