REMARK  Name = Cinnamyl alcohol
REMARK  3 active torsions:
REMARK  status: ('A' for Active; 'I' for Inactive)
REMARK    1  A    between atoms: O_1  and  C_2
REMARK    2  A    between atoms: C_2  and  C_3
REMARK    3  A    between atoms: C_4  and  C_5
REMARK                            x       y       z     vdW  Elec       q    Type
REMARK                         _______ _______ _______ _____ _____    ______ ____
ROOT
ATOM      1  C   UNL     1       4.618   2.210  -2.183  0.00  0.00    +0.000 A 
ATOM      2  C   UNL     1       5.641   1.995  -3.113  0.00  0.00    +0.000 A 
ATOM      3  C   UNL     1       6.066   3.039  -3.943  0.00  0.00    +0.000 A 
ATOM      4  C   UNL     1       5.444   4.286  -3.875  0.00  0.00    +0.000 A 
ATOM      5  C   UNL     1       4.433   4.510  -2.946  0.00  0.00    +0.000 A 
ATOM      6  C   UNL     1       4.039   3.483  -2.092  0.00  0.00    +0.000 A 
ENDROOT
BRANCH   1   8
ATOM      7  C   UNL     1       2.874   0.924  -1.033  0.00  0.00    +0.000 C 
ATOM      8  C   UNL     1       4.179   1.147  -1.273  0.00  0.00    +0.000 C 
BRANCH   7   9
ATOM      9  C   UNL     1       2.370  -0.077  -0.057  0.00  0.00    +0.000 C 
BRANCH   9  10
ATOM     10  O   UNL     1       0.951  -0.031  -0.080  0.00  0.00    +0.000 OA
ATOM     11  H   UNL     1       0.641  -0.702   0.550  0.00  0.00    +0.000 HD
ENDBRANCH   9  10
ENDBRANCH   7   9
ENDBRANCH   1   8
TORSDOF 3
