REMARK  Name = Cinnarizine
REMARK  6 active torsions:
REMARK  status: ('A' for Active; 'I' for Inactive)
REMARK    1  A    between atoms: C_1  and  C_2
REMARK    2  A    between atoms: C_1  and  N_10
REMARK    3  A    between atoms: C_3  and  C_4
REMARK    4  A    between atoms: N_13  and  C_16
REMARK    5  A    between atoms: C_16  and  C_17
REMARK    6  A    between atoms: C_16  and  C_23
REMARK                            x       y       z     vdW  Elec       q    Type
REMARK                         _______ _______ _______ _____ _____    ______ ____
ROOT
ATOM      1  N   UNL     1       2.361  -0.072  -0.102  0.00  0.00    +0.000 NA
ATOM      2  C   UNL     1       2.833   1.162   0.572  0.00  0.00    +0.000 C 
ATOM      3  C   UNL     1       2.464   1.219   2.079  0.00  0.00    +0.000 C 
ATOM      4  N   UNL     1       2.925   0.021   2.846  0.00  0.00    +0.000 NA
ATOM      5  C   UNL     1       2.345  -1.150   2.166  0.00  0.00    +0.000 C 
ATOM      6  C   UNL     1       2.808  -1.243   0.690  0.00  0.00    +0.000 C 
ENDROOT
BRANCH   1   7
ATOM      7  C   UNL     1       0.893  -0.034  -0.194  0.00  0.00    +0.000 C 
BRANCH   7   8
ATOM      8  C   UNL     1       0.368  -1.232  -0.899  0.00  0.00    +0.000 C 
ATOM      9  C   UNL     1      -0.942  -1.530  -0.960  0.00  0.00    +0.000 C 
BRANCH   9  10
ATOM     10  C   UNL     1      -1.366  -2.791  -1.553  0.00  0.00    +0.000 A 
ATOM     11  C   UNL     1      -2.400  -2.815  -2.491  0.00  0.00    +0.000 A 
ATOM     12  C   UNL     1      -2.831  -4.034  -3.013  0.00  0.00    +0.000 A 
ATOM     13  C   UNL     1      -2.198  -5.222  -2.642  0.00  0.00    +0.000 A 
ATOM     14  C   UNL     1      -1.161  -5.202  -1.714  0.00  0.00    +0.000 A 
ATOM     15  C   UNL     1      -0.760  -3.992  -1.158  0.00  0.00    +0.000 A 
ENDBRANCH   9  10
ENDBRANCH   7   8
ENDBRANCH   1   7
BRANCH   4  16
ATOM     16  C   UNL     1       4.423  -0.009   2.891  0.00  0.00    +0.000 C 
BRANCH  16  17
ATOM     17  C   UNL     1       4.923   1.282   3.553  0.00  0.00    +0.000 A 
ATOM     18  C   UNL     1       5.892   2.090   2.940  0.00  0.00    +0.000 A 
ATOM     19  C   UNL     1       6.540   3.064   3.694  0.00  0.00    +0.000 A 
ATOM     20  C   UNL     1       6.179   3.274   5.028  0.00  0.00    +0.000 A 
ATOM     21  C   UNL     1       5.151   2.536   5.610  0.00  0.00    +0.000 A 
ATOM     22  C   UNL     1       4.501   1.565   4.865  0.00  0.00    +0.000 A 
ENDBRANCH  16  17
BRANCH  16  23
ATOM     23  C   UNL     1       5.064  -1.261   3.553  0.00  0.00    +0.000 A 
ATOM     24  C   UNL     1       6.020  -1.137   4.577  0.00  0.00    +0.000 A 
ATOM     25  C   UNL     1       6.704  -2.237   5.085  0.00  0.00    +0.000 A 
ATOM     26  C   UNL     1       6.383  -3.515   4.654  0.00  0.00    +0.000 A 
ATOM     27  C   UNL     1       5.436  -3.684   3.661  0.00  0.00    +0.000 A 
ATOM     28  C   UNL     1       4.848  -2.566   3.075  0.00  0.00    +0.000 A 
ENDBRANCH  16  23
ENDBRANCH   4  16
TORSDOF 6
