REMARK  Name = Cinoxacin
REMARK  4 active torsions:
REMARK  status: ('A' for Active; 'I' for Inactive)
REMARK    1  A    between atoms: C_1  and  C_2
REMARK    2  A    between atoms: C_2  and  N_3
REMARK    3  A    between atoms: C_5  and  C_6
REMARK    4  A    between atoms: C_6  and  O_7
REMARK                            x       y       z     vdW  Elec       q    Type
REMARK                         _______ _______ _______ _____ _____    ______ ____
ROOT
ATOM      1  N   UNL     1       3.010  -1.279  -0.769  0.00  0.00    +0.000 N 
ATOM      2  N   UNL     1       3.827  -1.179  -1.868  0.00  0.00    +0.000 NA
ATOM      3  C   UNL     1       4.141  -2.251  -2.550  0.00  0.00    +0.000 A 
ATOM      4  C   UNL     1       3.608  -3.605  -2.147  0.00  0.00    +0.000 A 
ATOM      5  O   UNL     1       3.899  -4.571  -2.846  0.00  0.00    +0.000 OA
ATOM      6  C   UNL     1       2.814  -3.711  -0.912  0.00  0.00    +0.000 A 
ATOM      7  C   UNL     1       2.339  -4.944  -0.403  0.00  0.00    +0.000 A 
ATOM      8  C   UNL     1       1.728  -4.938   0.846  0.00  0.00    +0.000 A 
ATOM      9  C   UNL     1       1.529  -3.762   1.509  0.00  0.00    +0.000 A 
ATOM     10  O   UNL     1       0.920  -3.873   2.712  0.00  0.00    +0.000 OA
ATOM     11  C   UNL     1       0.808  -5.296   2.803  0.00  0.00    +0.000 C 
ATOM     12  O   UNL     1       1.288  -5.981   1.608  0.00  0.00    +0.000 OA
ATOM     13  C   UNL     1       1.938  -2.568   1.000  0.00  0.00    +0.000 A 
ATOM     14  C   UNL     1       2.597  -2.505  -0.233  0.00  0.00    +0.000 A 
ENDROOT
BRANCH   1  16
ATOM     15  C   UNL     1       1.070   0.132  -0.100  0.00  0.00    +0.000 C 
ATOM     16  C   UNL     1       2.598  -0.038  -0.079  0.00  0.00    +0.000 C 
ENDBRANCH   1  16
BRANCH   3  17
ATOM     17  C   UNL     1       5.072  -2.086  -3.787  0.00  0.00    +0.000 C 
ATOM     18  O   UNL     1       5.522  -1.013  -4.124  0.00  0.00    +0.000 OA
BRANCH  17  19
ATOM     19  O   UNL     1       5.343  -3.222  -4.462  0.00  0.00    +0.000 OA
ATOM     20  H   UNL     1       4.925  -4.040  -4.103  0.00  0.00    +0.000 HD
ENDBRANCH  17  19
ENDBRANCH   3  17
TORSDOF 3
