REMARK  Name = Cinoxate
REMARK  10 active torsions:
REMARK  status: ('A' for Active; 'I' for Inactive)
REMARK    1  A    between atoms: C_1  and  C_2
REMARK    2  A    between atoms: C_2  and  O_3
REMARK    3  A    between atoms: O_3  and  C_4
REMARK    4  A    between atoms: C_4  and  C_5
REMARK    5  A    between atoms: C_5  and  O_6
REMARK    6  A    between atoms: O_6  and  C_7
REMARK    7  A    between atoms: C_7  and  C_9
REMARK    8  A    between atoms: C_10  and  C_11
REMARK    9  A    between atoms: C_14  and  O_15
REMARK   10  A    between atoms: O_15  and  C_16
REMARK                            x       y       z     vdW  Elec       q    Type
REMARK                         _______ _______ _______ _____ _____    ______ ____
ROOT
ATOM      1  C   UNL     1       8.432  -2.153   3.354  0.00  0.00    +0.000 C 
ATOM      2  C   UNL     1       9.180  -2.755   4.300  0.00  0.00    +0.000 C 
ENDROOT
BRANCH   2   3
ATOM      3  C   UNL     1      10.656  -2.731   4.343  0.00  0.00    +0.000 A 
ATOM      4  C   UNL     1      11.394  -3.855   4.741  0.00  0.00    +0.000 A 
ATOM      5  C   UNL     1      12.790  -3.778   4.898  0.00  0.00    +0.000 A 
ATOM      6  C   UNL     1      13.478  -2.601   4.594  0.00  0.00    +0.000 A 
ATOM      7  C   UNL     1      12.746  -1.480   4.211  0.00  0.00    +0.000 A 
ATOM      8  C   UNL     1      11.352  -1.543   4.096  0.00  0.00    +0.000 A 
BRANCH   6   9
ATOM      9  O   UNL     1      14.844  -2.654   4.692  0.00  0.00    +0.000 OA
ATOM     10  C   UNL     1      15.553  -1.496   4.251  0.00  0.00    +0.000 C 
ENDBRANCH   6   9
ENDBRANCH   2   3
BRANCH   1  11
ATOM     11  C   UNL     1       6.948  -2.176   3.431  0.00  0.00    +0.000 C 
ATOM     12  O   UNL     1       6.320  -2.707   4.338  0.00  0.00    +0.000 OA
BRANCH  11  13
ATOM     13  O   UNL     1       6.401  -1.525   2.365  0.00  0.00    +0.000 OA
BRANCH  13  14
ATOM     14  C   UNL     1       4.953  -1.516   2.355  0.00  0.00    +0.000 C 
BRANCH  14  15
ATOM     15  C   UNL     1       4.422  -0.776   1.121  0.00  0.00    +0.000 C 
BRANCH  15  16
ATOM     16  O   UNL     1       2.987  -0.766   1.105  0.00  0.00    +0.000 OA
BRANCH  16  18
ATOM     17  C   UNL     1       0.969  -0.082  -0.036  0.00  0.00    +0.000 C 
ATOM     18  C   UNL     1       2.487  -0.076  -0.045  0.00  0.00    +0.000 C 
ENDBRANCH  16  18
ENDBRANCH  15  16
ENDBRANCH  14  15
ENDBRANCH  13  14
ENDBRANCH  11  13
ENDBRANCH   1  11
TORSDOF 8
