REMARK  Name = Ciprofibrate
REMARK  7 active torsions:
REMARK  status: ('A' for Active; 'I' for Inactive)
REMARK    1  A    between atoms: C_1  and  C_2
REMARK    2  A    between atoms: C_2  and  C_3
REMARK    3  A    between atoms: C_2  and  O_4
REMARK    4  A    between atoms: C_2  and  C_16
REMARK    5  A    between atoms: O_4  and  C_5
REMARK    6  A    between atoms: C_8  and  C_11
REMARK    7  A    between atoms: C_16  and  O_17
REMARK                            x       y       z     vdW  Elec       q    Type
REMARK                         _______ _______ _______ _____ _____    ______ ____
ROOT
ATOM      1  C   UNL     1       2.586  -0.500  -2.286  0.00  0.00    +0.000 A 
ATOM      2  C   UNL     1       3.523  -1.038  -3.166  0.00  0.00    +0.000 A 
ATOM      3  C   UNL     1       3.098  -1.901  -4.195  0.00  0.00    +0.000 A 
ATOM      4  C   UNL     1       1.766  -2.348  -4.275  0.00  0.00    +0.000 A 
ATOM      5  C   UNL     1       0.861  -1.759  -3.399  0.00  0.00    +0.000 A 
ATOM      6  C   UNL     1       1.253  -0.777  -2.517  0.00  0.00    +0.000 A 
ENDROOT
BRANCH   4   7
ATOM      7  C   UNL     1       1.320  -3.389  -5.269  0.00  0.00    +0.000 C 
ATOM      8  C   UNL     1      -0.033  -4.062  -5.147  0.00  0.00    +0.000 C 
ATOM      9  C   UNL     1       0.231  -3.109  -6.282  0.00  0.00    +0.000 C 
ATOM     10 CL   UNL     1      -0.635  -1.575  -6.297  0.00  0.00    +0.000 Cl
ATOM     11 CL   UNL     1       0.461  -3.774  -7.894  0.00  0.00    +0.000 Cl
ENDBRANCH   4   7
BRANCH   1  12
ATOM     12  O   UNL     1       2.965   0.352  -1.284  0.00  0.00    +0.000 OA
BRANCH  12  14
ATOM     13  C   UNL     1       0.933   0.082   0.221  0.00  0.00    +0.000 C 
ATOM     14  C   UNL     1       2.464   0.087   0.063  0.00  0.00    +0.000 C 
ATOM     15  C   UNL     1       3.008  -1.264   0.553  0.00  0.00    +0.000 C 
BRANCH  14  16
ATOM     16  C   UNL     1       3.075   1.195   0.966  0.00  0.00    +0.000 C 
ATOM     17  O   UNL     1       4.287   1.365   1.103  0.00  0.00    +0.000 OA
BRANCH  16  18
ATOM     18  O   UNL     1       2.219   1.991   1.653  0.00  0.00    +0.000 OA
ATOM     19  H   UNL     1       1.260   1.894   1.513  0.00  0.00    +0.000 HD
ENDBRANCH  16  18
ENDBRANCH  14  16
ENDBRANCH  12  14
ENDBRANCH   1  12
TORSDOF 5
