REMARK  Name = Ciprofloxacin
REMARK  4 active torsions:
REMARK  status: ('A' for Active; 'I' for Inactive)
REMARK    1  A    between atoms: O_1  and  C_2
REMARK    2  A    between atoms: C_2  and  C_4
REMARK    3  A    between atoms: N_6  and  C_7
REMARK    4  A    between atoms: C_12  and  N_13
REMARK                            x       y       z     vdW  Elec       q    Type
REMARK                         _______ _______ _______ _____ _____    ______ ____
ROOT
ATOM      1  C   UNL     1       3.087  -1.169  -0.662  0.00  0.00    +0.000 A 
ATOM      2  C   UNL     1       2.847  -1.636  -1.899  0.00  0.00    +0.000 A 
ATOM      3  N   UNL     1       3.486  -2.709  -2.520  0.00  0.00    +0.000 N 
ATOM      4  C   UNL     1       4.580  -3.340  -1.847  0.00  0.00    +0.000 A 
ATOM      5  C   UNL     1       5.365  -4.368  -2.410  0.00  0.00    +0.000 A 
ATOM      6  C   UNL     1       6.510  -4.888  -1.769  0.00  0.00    +0.000 A 
ATOM      7  C   UNL     1       6.772  -4.445  -0.467  0.00  0.00    +0.000 A 
ATOM      8  F   UNL     1       7.858  -4.881   0.189  0.00  0.00    +0.000 F 
ATOM      9  C   UNL     1       5.965  -3.508   0.160  0.00  0.00    +0.000 A 
ATOM     10  C   UNL     1       4.918  -2.919  -0.550  0.00  0.00    +0.000 A 
ATOM     11  C   UNL     1       4.182  -1.811   0.093  0.00  0.00    +0.000 A 
ATOM     12  O   UNL     1       4.482  -1.456   1.227  0.00  0.00    +0.000 OA
ENDROOT
BRANCH   6  13
ATOM     13  N   UNL     1       7.306  -5.803  -2.419  0.00  0.00    +0.000 N 
ATOM     14  C   UNL     1       7.694  -7.080  -1.820  0.00  0.00    +0.000 C 
ATOM     15  C   UNL     1       7.364  -8.196  -2.848  0.00  0.00    +0.000 C 
ATOM     16  N   UNL     1       8.028  -7.991  -4.157  0.00  0.00    +0.000 NA
ATOM     17  C   UNL     1       7.677  -6.653  -4.685  0.00  0.00    +0.000 C 
ATOM     18  C   UNL     1       7.984  -5.511  -3.687  0.00  0.00    +0.000 C 
ATOM     19  H   UNL     1       7.713  -8.706  -4.811  0.00  0.00    +0.000 HD
ENDBRANCH   6  13
BRANCH   3  20
ATOM     20  C   UNL     1       3.096  -3.128  -3.892  0.00  0.00    +0.000 C 
ATOM     21  C   UNL     1       1.890  -2.614  -4.631  0.00  0.00    +0.000 C 
ATOM     22  C   UNL     1       3.270  -2.223  -5.084  0.00  0.00    +0.000 C 
ENDBRANCH   3  20
BRANCH   1  23
ATOM     23  C   UNL     1       2.386  -0.003  -0.094  0.00  0.00    +0.000 C 
ATOM     24  O   UNL     1       2.963   0.941   0.433  0.00  0.00    +0.000 OA
BRANCH  23  25
ATOM     25  O   UNL     1       1.040  -0.047  -0.196  0.00  0.00    +0.000 OA
ATOM     26  H   UNL     1       0.658  -0.880  -0.525  0.00  0.00    +0.000 HD
ENDBRANCH  23  25
ENDBRANCH   1  23
TORSDOF 4
