REMARK  Name = Cisapride
REMARK  12 active torsions:
REMARK  status: ('A' for Active; 'I' for Inactive)
REMARK    1  A    between atoms: C_1  and  O_2
REMARK    2  A    between atoms: O_2  and  C_3
REMARK    3  A    between atoms: N_5  and  C_6
REMARK    4  A    between atoms: C_6  and  C_7
REMARK    5  A    between atoms: C_7  and  C_8
REMARK    6  A    between atoms: C_8  and  O_9
REMARK    7  A    between atoms: O_9  and  C_10
REMARK    8  A    between atoms: C_19  and  N_20
REMARK    9  A    between atoms: C_21  and  C_23
REMARK   10  A    between atoms: C_27  and  N_28
REMARK   11  A    between atoms: C_30  and  O_31
REMARK   12  A    between atoms: O_31  and  C_32
REMARK                            x       y       z     vdW  Elec       q    Type
REMARK                         _______ _______ _______ _____ _____    ______ ____
ROOT
ATOM      1  C   UNL     1       2.897  -1.055  -0.690  0.00  0.00    +0.000 C 
ATOM      2  C   UNL     1       4.369  -0.679  -0.894  0.00  0.00    +0.000 C 
ATOM      3  N   UNL     1       4.960  -0.362   0.415  0.00  0.00    +0.000 NA
ATOM      4  C   UNL     1       4.952  -1.544   1.276  0.00  0.00    +0.000 C 
ATOM      5  C   UNL     1       3.538  -2.092   1.510  0.00  0.00    +0.000 C 
ATOM      6  C   UNL     1       2.796  -2.343   0.191  0.00  0.00    +0.000 C 
ENDROOT
BRANCH   6   7
ATOM      7  N   UNL     1       1.417  -2.813   0.455  0.00  0.00    +0.000 N 
ATOM      8  C   UNL     1       0.389  -2.594  -0.429  0.00  0.00    +0.000 C 
ATOM      9  O   UNL     1       0.576  -2.179  -1.578  0.00  0.00    +0.000 OA
ATOM     10  H   UNL     1       1.233  -3.385   1.272  0.00  0.00    +0.000 HD
BRANCH   8  11
ATOM     11  C   UNL     1      -1.019  -2.824  -0.028  0.00  0.00    +0.000 A 
ATOM     12  C   UNL     1      -1.867  -3.008  -1.135  0.00  0.00    +0.000 A 
ATOM     13  C   UNL     1      -3.189  -3.367  -0.967  0.00  0.00    +0.000 A 
ATOM     14 CL   UNL     1      -4.130  -3.695  -2.377  0.00  0.00    +0.000 Cl
ATOM     15  C   UNL     1      -3.717  -3.512   0.317  0.00  0.00    +0.000 A 
ATOM     16  C   UNL     1      -2.906  -3.204   1.419  0.00  0.00    +0.000 A 
ATOM     17  C   UNL     1      -1.555  -2.840   1.273  0.00  0.00    +0.000 A 
BRANCH  15  18
ATOM     18  N   UNL     1      -5.018  -3.944   0.520  0.00  0.00    +0.000 N 
ATOM     19  H   UNL     1      -5.574  -4.193  -0.292  0.00  0.00    +0.000 HD
ATOM     20  H   UNL     1      -5.402  -4.077   1.443  0.00  0.00    +0.000 HD
ENDBRANCH  15  18
BRANCH  17  21
ATOM     21  O   UNL     1      -0.762  -2.480   2.336  0.00  0.00    +0.000 OA
ATOM     22  C   UNL     1      -1.361  -2.525   3.637  0.00  0.00    +0.000 C 
ENDBRANCH  17  21
ENDBRANCH   8  11
ENDBRANCH   6   7
BRANCH   1  24
ATOM     23  C   UNL     1       0.957   0.266  -0.015  0.00  0.00    +0.000 C 
ATOM     24  O   UNL     1       2.353   0.133  -0.075  0.00  0.00    +0.000 OA
ENDBRANCH   1  24
BRANCH   3  25
ATOM     25  C   UNL     1       6.254   0.284   0.255  0.00  0.00    +0.000 C 
BRANCH  25  26
ATOM     26  C   UNL     1       6.829   0.737   1.593  0.00  0.00    +0.000 C 
BRANCH  26  27
ATOM     27  C   UNL     1       8.194   1.370   1.402  0.00  0.00    +0.000 C 
BRANCH  27  28
ATOM     28  O   UNL     1       8.706   1.680   2.700  0.00  0.00    +0.000 OA
BRANCH  28  29
ATOM     29  C   UNL     1       9.940   2.267   2.692  0.00  0.00    +0.000 A 
ATOM     30  C   UNL     1      10.299   3.296   1.819  0.00  0.00    +0.000 A 
ATOM     31  C   UNL     1      11.566   3.873   1.909  0.00  0.00    +0.000 A 
ATOM     32  C   UNL     1      12.455   3.431   2.881  0.00  0.00    +0.000 A 
ATOM     33  F   UNL     1      13.667   3.993   2.968  0.00  0.00    +0.000 F 
ATOM     34  C   UNL     1      12.100   2.422   3.769  0.00  0.00    +0.000 A 
ATOM     35  C   UNL     1      10.834   1.842   3.678  0.00  0.00    +0.000 A 
ENDBRANCH  28  29
ENDBRANCH  27  28
ENDBRANCH  26  27
ENDBRANCH  25  26
ENDBRANCH   3  25
TORSDOF 10
