REMARK  Name = Citalopram
REMARK  8 active torsions:
REMARK  status: ('A' for Active; 'I' for Inactive)
REMARK    1  A    between atoms: C_1  and  N_2
REMARK    2  A    between atoms: N_2  and  C_3
REMARK    3  A    between atoms: N_2  and  C_4
REMARK    4  A    between atoms: C_4  and  C_5
REMARK    5  A    between atoms: C_5  and  C_6
REMARK    6  A    between atoms: C_6  and  C_7
REMARK    7  A    between atoms: C_7  and  C_18
REMARK    8  A    between atoms: C_14  and  C_16
REMARK                            x       y       z     vdW  Elec       q    Type
REMARK                         _______ _______ _______ _____ _____    ______ ____
ROOT
ATOM      1  C   UNL     1       6.629  -2.449   1.531  0.00  0.00    +0.000 C 
ATOM      2  O   UNL     1       7.175  -2.040   0.230  0.00  0.00    +0.000 OA
ATOM      3  C   UNL     1       7.937  -3.094  -0.401  0.00  0.00    +0.000 C 
ATOM      4  C   UNL     1       7.957  -4.202   0.569  0.00  0.00    +0.000 A 
ATOM      5  C   UNL     1       7.207  -3.862   1.690  0.00  0.00    +0.000 A 
ATOM      6  C   UNL     1       7.077  -4.830   2.681  0.00  0.00    +0.000 A 
ATOM      7  C   UNL     1       7.736  -6.078   2.545  0.00  0.00    +0.000 A 
ATOM      8  C   UNL     1       8.502  -6.384   1.408  0.00  0.00    +0.000 A 
ATOM      9  C   UNL     1       8.604  -5.431   0.400  0.00  0.00    +0.000 A 
ENDROOT
BRANCH   1  10
ATOM     10  C   UNL     1       7.001  -1.368   2.598  0.00  0.00    +0.000 A 
ATOM     11  C   UNL     1       6.720   0.013   2.402  0.00  0.00    +0.000 A 
ATOM     12  C   UNL     1       6.928   0.988   3.381  0.00  0.00    +0.000 A 
ATOM     13  C   UNL     1       7.419   0.601   4.607  0.00  0.00    +0.000 A 
ATOM     14  F   UNL     1       7.717   1.531   5.522  0.00  0.00    +0.000 F 
ATOM     15  C   UNL     1       7.637  -0.742   4.877  0.00  0.00    +0.000 A 
ATOM     16  C   UNL     1       7.471  -1.709   3.872  0.00  0.00    +0.000 A 
ENDBRANCH   1  10
BRANCH   8  17
ATOM     17  C   UNL     1       9.168  -7.646   1.265  0.00  0.00    +0.000 C 
ATOM     18  N   UNL     1       9.722  -8.665   1.123  0.00  0.00    +0.000 NA
ENDBRANCH   8  17
BRANCH   1  19
ATOM     19  C   UNL     1       5.062  -2.450   1.465  0.00  0.00    +0.000 C 
BRANCH  19  20
ATOM     20  C   UNL     1       4.464  -1.305   0.633  0.00  0.00    +0.000 C 
BRANCH  20  21
ATOM     21  C   UNL     1       2.950  -1.207   0.682  0.00  0.00    +0.000 C 
BRANCH  21  23
ATOM     22  C   UNL     1       1.020  -0.030  -0.091  0.00  0.00    +0.000 C 
ATOM     23  N   UNL     1       2.482  -0.033  -0.083  0.00  0.00    +0.000 NA
ATOM     24  C   UNL     1       2.956   1.243   0.476  0.00  0.00    +0.000 C 
ENDBRANCH  21  23
ENDBRANCH  20  21
ENDBRANCH  19  20
ENDBRANCH   1  19
TORSDOF 6
