REMARK  Name = Citicoline
REMARK  16 active torsions:
REMARK  status: ('A' for Active; 'I' for Inactive)
REMARK    1  A    between atoms: C_1  and  N_2
REMARK    2  A    between atoms: N_2  and  C_3
REMARK    3  A    between atoms: N_2  and  C_4
REMARK    4  A    between atoms: N_2  and  C_5
REMARK    5  A    between atoms: C_5  and  C_6
REMARK    6  A    between atoms: C_6  and  O_7
REMARK    7  A    between atoms: O_7  and  P_8
REMARK    8  A    between atoms: P_8  and  O_11
REMARK    9  A    between atoms: O_11  and  P_12
REMARK   10  A    between atoms: P_12  and  O_13
REMARK   11  A    between atoms: P_12  and  O_15
REMARK   12  A    between atoms: O_15  and  C_16
REMARK   13  A    between atoms: C_16  and  C_17
REMARK   14  A    between atoms: C_19  and  N_24
REMARK   15  A    between atoms: C_20  and  O_21
REMARK   16  A    between atoms: C_22  and  O_23
REMARK                            x       y       z     vdW  Elec       q    Type
REMARK                         _______ _______ _______ _____ _____    ______ ____
ROOT
ATOM      1  C   UNL     1      10.445   6.946   0.684  0.00  0.00    +0.000 C 
ATOM      2  O   UNL     1      10.022   7.104  -0.692  0.00  0.00    +0.000 OA
ATOM      3  C   UNL     1       9.474   8.428  -0.899  0.00  0.00    +0.000 C 
ATOM      4  C   UNL     1       9.145   9.015   0.475  0.00  0.00    +0.000 C 
ATOM      5  C   UNL     1      10.174   8.325   1.370  0.00  0.00    +0.000 C 
ENDROOT
BRANCH   3   6
ATOM      6  N   UNL     1       8.341   8.354  -1.815  0.00  0.00    +0.000 N 
ATOM      7  C   UNL     1       8.424   8.915  -3.076  0.00  0.00    +0.000 A 
ATOM      8  C   UNL     1       7.529   8.610  -4.012  0.00  0.00    +0.000 A 
ATOM      9  C   UNL     1       6.318   7.917  -3.537  0.00  0.00    +0.000 A 
ATOM     10  N   UNL     1       5.257   7.782  -4.382  0.00  0.00    +0.000 N 
ATOM     11  N   UNL     1       6.196   7.452  -2.330  0.00  0.00    +0.000 NA
ATOM     12  C   UNL     1       7.256   7.551  -1.466  0.00  0.00    +0.000 A 
ATOM     13  O   UNL     1       7.225   6.957  -0.370  0.00  0.00    +0.000 OA
ATOM     14  H   UNL     1       5.229   8.233  -5.285  0.00  0.00    +0.000 HD
ATOM     15  H   UNL     1       4.378   7.485  -3.975  0.00  0.00    +0.000 HD
ENDBRANCH   3   6
BRANCH   4  16
ATOM     16  O   UNL     1       9.207  10.448   0.485  0.00  0.00    +0.000 OA
ATOM     17  H   UNL     1      10.140  10.718   0.435  0.00  0.00    +0.000 HD
ENDBRANCH   4  16
BRANCH   5  18
ATOM     18  O   UNL     1      11.357   9.152   1.434  0.00  0.00    +0.000 OA
ATOM     19  H   UNL     1      11.754   9.230   0.551  0.00  0.00    +0.000 HD
ENDBRANCH   5  18
BRANCH   1  20
ATOM     20  C   UNL     1       9.834   5.670   1.492  0.00  0.00    +0.000 C 
BRANCH  20  21
ATOM     21  O   UNL     1       9.802   4.359   0.918  0.00  0.00    +0.000 OA
BRANCH  21  22
ATOM     22  P   UNL     1       8.792   3.098   0.709  0.00  0.00    +0.000 P 
ATOM     23  O   UNL     1       7.766   3.236  -0.377  0.00  0.00    +0.000 OA
BRANCH  22  24
ATOM     24  O   UNL     1      10.005   2.163   0.171  0.00  0.00    +0.000 OA
ATOM     25  H   UNL     1      10.268   1.645   0.957  0.00  0.00    +0.000 HD
ENDBRANCH  22  24
BRANCH  22  26
ATOM     26  O   UNL     1       8.399   1.954   1.903  0.00  0.00    +0.000 OA
BRANCH  26  27
ATOM     27  P   UNL     1       6.669   1.954   1.903  0.00  0.00    +0.000 P 
ATOM     28  O   UNL     1       6.659   2.076   3.428  0.00  0.00    +0.000 OA
ATOM     29  O   UNL     1       6.764   0.558   1.263  0.00  0.00    +0.000 OA
BRANCH  27  30
ATOM     30  O   UNL     1       4.939   1.954   1.903  0.00  0.00    +0.000 OA
BRANCH  30  31
ATOM     31  C   UNL     1       4.429   1.074   0.953  0.00  0.00    +0.000 C 
BRANCH  31  32
ATOM     32  C   UNL     1       2.932   1.063   0.944  0.00  0.00    +0.000 C 
BRANCH  32  34
ATOM     33  C   UNL     1       0.912   0.067  -0.075  0.00  0.00    +0.000 C 
ATOM     34  N   UNL     1       2.419   0.047  -0.105  0.00  0.00    +0.000 N 
ATOM     35  C   UNL     1       2.918  -1.359   0.237  0.00  0.00    +0.000 C 
ATOM     36  C   UNL     1       2.916   0.442  -1.491  0.00  0.00    +0.000 C 
ENDBRANCH  32  34
ENDBRANCH  31  32
ENDBRANCH  30  31
ENDBRANCH  27  30
ENDBRANCH  26  27
ENDBRANCH  22  26
ENDBRANCH  21  22
ENDBRANCH  20  21
ENDBRANCH   1  20
TORSDOF 13
