REMARK  Name = Citric acid
REMARK  9 active torsions:
REMARK  status: ('A' for Active; 'I' for Inactive)
REMARK    1  A    between atoms: O_1  and  C_2
REMARK    2  A    between atoms: C_2  and  C_4
REMARK    3  A    between atoms: C_4  and  C_5
REMARK    4  A    between atoms: C_5  and  O_6
REMARK    5  A    between atoms: C_5  and  C_7
REMARK    6  A    between atoms: C_5  and  C_11
REMARK    7  A    between atoms: C_7  and  C_8
REMARK    8  A    between atoms: C_8  and  O_9
REMARK    9  A    between atoms: C_11  and  O_12
REMARK                            x       y       z     vdW  Elec       q    Type
REMARK                         _______ _______ _______ _____ _____    ______ ____
ROOT
ATOM      1  C   UNL     1       4.577  -0.604   0.937  0.00  0.00    +0.000 C 
ENDROOT
BRANCH   1   2
ATOM      2  O   UNL     1       4.905  -1.395  -0.217  0.00  0.00    +0.000 OA
ATOM      3  H   UNL     1       4.989  -0.831  -1.010  0.00  0.00    +0.000 HD
ENDBRANCH   1   2
BRANCH   1   4
ATOM      4  C   UNL     1       5.464  -1.247   2.062  0.00  0.00    +0.000 C 
ATOM      5  O   UNL     1       6.691  -1.222   2.050  0.00  0.00    +0.000 OA
BRANCH   4   6
ATOM      6  O   UNL     1       4.830  -1.841   3.097  0.00  0.00    +0.000 OA
ATOM      7  H   UNL     1       3.865  -1.931   3.089  0.00  0.00    +0.000 HD
ENDBRANCH   4   6
ENDBRANCH   1   4
BRANCH   1   8
ATOM      8  C   UNL     1       3.056  -0.767   1.207  0.00  0.00    +0.000 C 
BRANCH   8   9
ATOM      9  C   UNL     1       2.107  -0.260   0.133  0.00  0.00    +0.000 C 
ATOM     10  O   UNL     1       2.447   0.012  -0.997  0.00  0.00    +0.000 OA
BRANCH   9  11
ATOM     11  O   UNL     1       0.809  -0.169   0.478  0.00  0.00    +0.000 OA
ATOM     12  H   UNL     1       0.487  -0.657   1.255  0.00  0.00    +0.000 HD
ENDBRANCH   9  11
ENDBRANCH   8   9
ENDBRANCH   1   8
BRANCH   1  13
ATOM     13  C   UNL     1       5.077   0.860   0.857  0.00  0.00    +0.000 C 
BRANCH  13  14
ATOM     14  C   UNL     1       4.621   1.710  -0.297  0.00  0.00    +0.000 C 
ATOM     15  O   UNL     1       4.486   2.923  -0.235  0.00  0.00    +0.000 OA
BRANCH  14  16
ATOM     16  O   UNL     1       4.554   1.024  -1.456  0.00  0.00    +0.000 OA
ATOM     17  H   UNL     1       3.680   0.550  -1.497  0.00  0.00    +0.000 HD
ENDBRANCH  14  16
ENDBRANCH  13  14
ENDBRANCH   1  13
TORSDOF 9
