REMARK  Name = Cladribine
REMARK  5 active torsions:
REMARK  status: ('A' for Active; 'I' for Inactive)
REMARK    1  A    between atoms: N_1  and  C_2
REMARK    2  A    between atoms: N_6  and  C1*_7
REMARK    3  A    between atoms: C3*_9  and  O3*_10
REMARK    4  A    between atoms: C4*_11  and  C5*_12
REMARK    5  A    between atoms: C5*_12  and  O5*_13
REMARK                            x       y       z     vdW  Elec       q    Type
REMARK                         _______ _______ _______ _____ _____    ______ ____
ROOT
ATOM      1  C   UNL     1       2.353  -0.014  -0.064  0.00  0.00    +0.000 A 
ATOM      2  C   UNL     1       3.076  -1.220  -0.074  0.00  0.00    +0.000 A 
ATOM      3  N   UNL     1       2.660  -2.530  -0.080  0.00  0.00    +0.000 NA
ATOM      4  C   UNL     1       3.771  -3.233  -0.097  0.00  0.00    +0.000 A 
ATOM      5  N   UNL     1       4.890  -2.438  -0.077  0.00  0.00    +0.000 N 
ATOM      6  C   UNL     1       4.464  -1.133  -0.070  0.00  0.00    +0.000 A 
ATOM      7  N   UNL     1       5.193  -0.004  -0.054  0.00  0.00    +0.000 NA
ATOM      8  C   UNL     1       4.381   1.081  -0.057  0.00  0.00    +0.000 A 
ATOM      9 CL   UNL     1       5.177   2.598  -0.046  0.00  0.00    +0.000 Cl
ATOM     10  N   UNL     1       3.033   1.149  -0.060  0.00  0.00    +0.000 NA
ENDROOT
BRANCH   5  11
ATOM     11  C1* UNL     1       6.255  -2.922  -0.021  0.00  0.00    +0.000 C 
ATOM     12  C2* UNL     1       6.552  -3.814   1.180  0.00  0.00    +0.000 C 
ATOM     13  C3* UNL     1       7.640  -4.723   0.659  0.00  0.00    +0.000 C 
ATOM     14  C4* UNL     1       7.284  -4.884  -0.819  0.00  0.00    +0.000 C 
ATOM     15  O4* UNL     1       6.523  -3.716  -1.198  0.00  0.00    +0.000 OA
BRANCH  13  16
ATOM     16  O3* UNL     1       8.909  -4.089   0.828  0.00  0.00    +0.000 OA
ATOM     17  H3* UNL     1       8.962  -3.299   0.264  0.00  0.00    +0.000 HD
ENDBRANCH  13  16
BRANCH  14  18
ATOM     18  C5* UNL     1       6.449  -6.142  -1.088  0.00  0.00    +0.000 C 
BRANCH  18  19
ATOM     19  O5* UNL     1       7.158  -7.325  -0.743  0.00  0.00    +0.000 OA
ATOM     20  H5* UNL     1       7.961  -7.370  -1.293  0.00  0.00    +0.000 HD
ENDBRANCH  18  19
ENDBRANCH  14  18
ENDBRANCH   5  11
BRANCH   1  21
ATOM     21  N   UNL     1       0.976   0.012  -0.052  0.00  0.00    +0.000 N 
ATOM     22  H   UNL     1       0.476  -0.866  -0.073  0.00  0.00    +0.000 HD
ATOM     23  H   UNL     1       0.500   0.900  -0.070  0.00  0.00    +0.000 HD
ENDBRANCH   1  21
TORSDOF 5
