REMARK  Name = Clascoterone
REMARK  9 active torsions:
REMARK  status: ('A' for Active; 'I' for Inactive)
REMARK    1  A    between atoms: C_5  and  O_6
REMARK    2  A    between atoms: C_5  and  C_11
REMARK    3  A    between atoms: O_6  and  C_7
REMARK    4  A    between atoms: C_7  and  C_9
REMARK    5  A    between atoms: C_9  and  C_10
REMARK    6  A    between atoms: C_11  and  C_13
REMARK    7  A    between atoms: C_13  and  O_14
REMARK    8  A    between atoms: C_15  and  C_16
REMARK    9  A    between atoms: C_31  and  C_32
REMARK                            x       y       z     vdW  Elec       q    Type
REMARK                         _______ _______ _______ _____ _____    ______ ____
ROOT
ATOM      1  C   UNL     1       2.181  -0.115  -0.062  0.00  0.00    +0.000 C 
ATOM      2  C   UNL     1       2.603   1.305   0.306  0.00  0.00    +0.000 C 
ATOM      3  C   UNL     1       2.623   1.330   1.850  0.00  0.00    +0.000 C 
ATOM      4  C   UNL     1       2.368  -0.134   2.333  0.00  0.00    +0.000 C 
ATOM      5  C   UNL     1       2.735  -0.996   1.067  0.00  0.00    +0.000 C 
ATOM      6  C   UNL     1       4.269  -1.167   0.909  0.00  0.00    +0.000 C 
ATOM      7  C   UNL     1       2.024  -2.356   0.975  0.00  0.00    +0.000 C 
ATOM      8  C   UNL     1       2.139  -2.983  -0.419  0.00  0.00    +0.000 C 
ATOM      9  C   UNL     1       1.729  -2.041  -1.579  0.00  0.00    +0.000 C 
ATOM     10  C   UNL     1       2.383  -0.626  -1.474  0.00  0.00    +0.000 C 
ATOM     11  C   UNL     1       1.688   0.315  -2.472  0.00  0.00    +0.000 C 
ATOM     12  C   UNL     1       1.769  -0.204  -3.897  0.00  0.00    +0.000 C 
ATOM     13  C   UNL     1       1.361  -1.652  -4.030  0.00  0.00    +0.000 C 
ATOM     14  C   UNL     1       0.540  -2.012  -5.032  0.00  0.00    +0.000 C 
ATOM     15  C   UNL     1       0.286  -3.438  -5.341  0.00  0.00    +0.000 C 
ATOM     16  O   UNL     1      -0.453  -3.733  -6.276  0.00  0.00    +0.000 OA
ATOM     17  C   UNL     1       1.059  -4.470  -4.563  0.00  0.00    +0.000 C 
ATOM     18  C   UNL     1       1.222  -4.011  -3.120  0.00  0.00    +0.000 C 
ATOM     19  C   UNL     1       1.945  -2.640  -3.010  0.00  0.00    +0.000 C 
ATOM     20  C   UNL     1       3.449  -2.839  -3.297  0.00  0.00    +0.000 C 
ENDROOT
BRANCH   4  21
ATOM     21  C   UNL     1       3.315  -0.454   3.534  0.00  0.00    +0.000 C 
ATOM     22  O   UNL     1       4.168   0.345   3.938  0.00  0.00    +0.000 OA
BRANCH  21  23
ATOM     23  C   UNL     1       3.251  -1.850   4.157  0.00  0.00    +0.000 C 
BRANCH  23  24
ATOM     24  O   UNL     1       4.199  -2.043   5.201  0.00  0.00    +0.000 OA
ATOM     25  H   UNL     1       5.057  -1.719   4.865  0.00  0.00    +0.000 HD
ENDBRANCH  23  24
ENDBRANCH  21  23
ENDBRANCH   4  21
BRANCH   4  26
ATOM     26  O   UNL     1       0.979  -0.364   2.778  0.00  0.00    +0.000 OA
BRANCH  26  27
ATOM     27  C   UNL     1      -0.092   0.160   2.114  0.00  0.00    +0.000 C 
ATOM     28  O   UNL     1      -0.035   0.973   1.194  0.00  0.00    +0.000 OA
BRANCH  27  29
ATOM     29  C   UNL     1      -1.432  -0.298   2.613  0.00  0.00    +0.000 C 
ATOM     30  C   UNL     1      -2.472  -0.004   1.522  0.00  0.00    +0.000 C 
ENDBRANCH  27  29
ENDBRANCH  26  27
ENDBRANCH   4  26
TORSDOF 6
