REMARK  Name = Clavulanic acid
REMARK  4 active torsions:
REMARK  status: ('A' for Active; 'I' for Inactive)
REMARK    1  A    between atoms: C_7  and  C_8
REMARK    2  A    between atoms: C_8  and  O_9
REMARK    3  A    between atoms: C_13  and  C_14
REMARK    4  A    between atoms: C_14  and  O_15
REMARK                            x       y       z     vdW  Elec       q    Type
REMARK                         _______ _______ _______ _____ _____    ______ ____
ROOT
ATOM      1  C   UNL     1       2.266   0.298   0.085  0.00  0.00    +0.000 C 
ATOM      2  C   UNL     1       2.754  -0.900   0.918  0.00  0.00    +0.000 C 
ATOM      3  C   UNL     1       3.550  -1.266  -0.339  0.00  0.00    +0.000 C 
ATOM      4  O   UNL     1       4.499  -1.978  -0.592  0.00  0.00    +0.000 OA
ATOM      5  N   UNL     1       2.907  -0.319  -1.087  0.00  0.00    +0.000 N 
ATOM      6  C   UNL     1       3.687   0.704  -1.762  0.00  0.00    +0.000 C 
ATOM      7  C   UNL     1       3.925   1.653  -0.597  0.00  0.00    +0.000 C 
ATOM      8  O   UNL     1       2.887   1.600   0.346  0.00  0.00    +0.000 OA
ATOM      9  C   UNL     1       5.045   2.385  -0.430  0.00  0.00    +0.000 C 
ENDROOT
BRANCH   6  10
ATOM     10  C   UNL     1       2.812   1.363  -2.858  0.00  0.00    +0.000 C 
ATOM     11  O   UNL     1       2.111   0.723  -3.635  0.00  0.00    +0.000 OA
BRANCH  10  12
ATOM     12  O   UNL     1       2.852   2.717  -2.946  0.00  0.00    +0.000 OA
ATOM     13  H   UNL     1       3.376   3.197  -2.277  0.00  0.00    +0.000 HD
ENDBRANCH  10  12
ENDBRANCH   6  10
BRANCH   9  14
ATOM     14  C   UNL     1       5.326   3.371   0.659  0.00  0.00    +0.000 C 
BRANCH  14  15
ATOM     15  O   UNL     1       6.628   3.915   0.461  0.00  0.00    +0.000 OA
ATOM     16  H   UNL     1       7.285   3.248   0.727  0.00  0.00    +0.000 HD
ENDBRANCH  14  15
ENDBRANCH   9  14
TORSDOF 4
