REMARK  Name = Clemastine
REMARK  8 active torsions:
REMARK  status: ('A' for Active; 'I' for Inactive)
REMARK    1  A    between atoms: C_1  and  N_2
REMARK    2  A    between atoms: C_6  and  C_7
REMARK    3  A    between atoms: C_7  and  C_8
REMARK    4  A    between atoms: C_8  and  O_9
REMARK    5  A    between atoms: O_9  and  C_10
REMARK    6  A    between atoms: C_10  and  C_11
REMARK    7  A    between atoms: C_10  and  C_12
REMARK    8  A    between atoms: C_10  and  C_18
REMARK                            x       y       z     vdW  Elec       q    Type
REMARK                         _______ _______ _______ _____ _____    ______ ____
ROOT
ATOM      1  C   UNL     1      -3.500  -4.216  -0.746  0.00  0.00    +0.000 C 
ATOM      2  C   UNL     1      -2.006  -3.870  -0.999  0.00  0.00    +0.000 C 
ENDROOT
BRANCH   1   3
ATOM      3  C   UNL     1      -3.781  -5.550  -1.572  0.00  0.00    +0.000 A 
ATOM      4  C   UNL     1      -4.803  -5.712  -2.528  0.00  0.00    +0.000 A 
ATOM      5  C   UNL     1      -5.190  -6.974  -3.008  0.00  0.00    +0.000 A 
ATOM      6  C   UNL     1      -4.461  -8.096  -2.678  0.00  0.00    +0.000 A 
ATOM      7 CL   UNL     1      -4.892  -9.641  -3.284  0.00  0.00    +0.000 Cl
ATOM      8  C   UNL     1      -3.327  -7.955  -1.896  0.00  0.00    +0.000 A 
ATOM      9  C   UNL     1      -2.984  -6.694  -1.387  0.00  0.00    +0.000 A 
ENDBRANCH   1   3
BRANCH   1  10
ATOM     10  C   UNL     1      -4.425  -3.024  -1.094  0.00  0.00    +0.000 A 
ATOM     11  C   UNL     1      -3.956  -1.700  -1.067  0.00  0.00    +0.000 A 
ATOM     12  C   UNL     1      -4.789  -0.625  -1.385  0.00  0.00    +0.000 A 
ATOM     13  C   UNL     1      -6.087  -0.854  -1.823  0.00  0.00    +0.000 A 
ATOM     14  C   UNL     1      -6.594  -2.143  -1.818  0.00  0.00    +0.000 A 
ATOM     15  C   UNL     1      -5.800  -3.191  -1.350  0.00  0.00    +0.000 A 
ENDBRANCH   1  10
BRANCH   1  16
ATOM     16  O   UNL     1      -3.677  -4.287   0.722  0.00  0.00    +0.000 OA
BRANCH  16  17
ATOM     17  C   UNL     1      -3.188  -5.482   1.296  0.00  0.00    +0.000 C 
BRANCH  17  18
ATOM     18  C   UNL     1      -3.296  -5.732   2.788  0.00  0.00    +0.000 C 
BRANCH  18  24
ATOM     19  C   UNL     1      -3.010  -8.655   1.227  0.00  0.00    +0.000 C 
ATOM     20  N   UNL     1      -3.260  -8.334   2.617  0.00  0.00    +0.000 NA
ATOM     21  C   UNL     1      -2.722  -9.430   3.418  0.00  0.00    +0.000 C 
ATOM     22  C   UNL     1      -2.727  -8.864   4.815  0.00  0.00    +0.000 C 
ATOM     23  C   UNL     1      -2.675  -7.349   4.641  0.00  0.00    +0.000 C 
ATOM     24  C   UNL     1      -2.626  -7.099   3.133  0.00  0.00    +0.000 C 
ENDBRANCH  18  24
ENDBRANCH  17  18
ENDBRANCH  16  17
ENDBRANCH   1  16
TORSDOF 6
