REMARK  Name = Clenbuterol
REMARK  9 active torsions:
REMARK  status: ('A' for Active; 'I' for Inactive)
REMARK    1  A    between atoms: C_1  and  C_2
REMARK    2  A    between atoms: C_2  and  C_3
REMARK    3  A    between atoms: C_2  and  C_4
REMARK    4  A    between atoms: C_2  and  N_5
REMARK    5  A    between atoms: N_5  and  C_6
REMARK    6  A    between atoms: C_6  and  C_7
REMARK    7  A    between atoms: C_7  and  O_8
REMARK    8  A    between atoms: C_7  and  C_9
REMARK    9  A    between atoms: C_13  and  N_14
REMARK                            x       y       z     vdW  Elec       q    Type
REMARK                         _______ _______ _______ _____ _____    ______ ____
ROOT
ATOM      1  C   UNL     1       6.588   2.644   1.081  0.00  0.00    +0.000 A 
ATOM      2  C   UNL     1       7.297   3.147  -0.020  0.00  0.00    +0.000 A 
ATOM      3  C   UNL     1       8.693   3.116  -0.042  0.00  0.00    +0.000 A 
ATOM      4 CL   UNL     1       9.498   3.784  -1.423  0.00  0.00    +0.000 Cl
ATOM      5  C   UNL     1       9.438   2.580   1.027  0.00  0.00    +0.000 A 
ATOM      6  C   UNL     1       8.711   2.036   2.104  0.00  0.00    +0.000 A 
ATOM      7 CL   UNL     1       9.531   1.320   3.451  0.00  0.00    +0.000 Cl
ATOM      8  C   UNL     1       7.319   2.069   2.132  0.00  0.00    +0.000 A 
ENDROOT
BRANCH   5   9
ATOM      9  N   UNL     1      10.823   2.426   0.947  0.00  0.00    +0.000 N 
ATOM     10  H   UNL     1      11.322   2.965   0.244  0.00  0.00    +0.000 HD
ATOM     11  H   UNL     1      11.321   2.177   1.796  0.00  0.00    +0.000 HD
ENDBRANCH   5   9
BRANCH   1  12
ATOM     12  C   UNL     1       5.073   2.649   1.071  0.00  0.00    +0.000 C 
BRANCH  12  13
ATOM     13  O   UNL     1       4.570   2.884   2.389  0.00  0.00    +0.000 OA
ATOM     14  H   UNL     1       4.739   2.089   2.917  0.00  0.00    +0.000 HD
ENDBRANCH  12  13
BRANCH  12  15
ATOM     15  C   UNL     1       4.576   1.296   0.527  0.00  0.00    +0.000 C 
BRANCH  15  16
ATOM     16  N   UNL     1       3.112   1.196   0.486  0.00  0.00    +0.000 NA
ATOM     17  H   UNL     1       2.735   1.411   1.411  0.00  0.00    +0.000 HD
BRANCH  16  19
ATOM     18  C   UNL     1       1.074  -0.050   0.021  0.00  0.00    +0.000 C 
ATOM     19  C   UNL     1       2.612  -0.104   0.003  0.00  0.00    +0.000 C 
ATOM     20  C   UNL     1       3.068  -1.257   0.913  0.00  0.00    +0.000 C 
ATOM     21  C   UNL     1       3.068  -0.350  -1.446  0.00  0.00    +0.000 C 
ENDBRANCH  16  19
ENDBRANCH  15  16
ENDBRANCH  12  15
ENDBRANCH   1  12
TORSDOF 6
