REMARK  Name = Clevidipine
REMARK  14 active torsions:
REMARK  status: ('A' for Active; 'I' for Inactive)
REMARK    1  A    between atoms: C_1  and  C_2
REMARK    2  A    between atoms: C_2  and  C_3
REMARK    3  A    between atoms: C_3  and  C_4
REMARK    4  A    between atoms: C_4  and  O_6
REMARK    5  A    between atoms: O_6  and  C_7
REMARK    6  A    between atoms: C_7  and  O_8
REMARK    7  A    between atoms: O_8  and  C_9
REMARK    8  A    between atoms: C_9  and  C_11
REMARK    9  A    between atoms: C_12  and  C_13
REMARK   10  A    between atoms: C_15  and  C_16
REMARK   11  A    between atoms: C_17  and  C_27
REMARK   12  A    between atoms: C_18  and  C_19
REMARK   13  A    between atoms: C_27  and  O_29
REMARK   14  A    between atoms: O_29  and  C_30
REMARK                            x       y       z     vdW  Elec       q    Type
REMARK                         _______ _______ _______ _____ _____    ______ ____
ROOT
ATOM      1  C   UNL     1       9.013  -5.404   1.708  0.00  0.00    +0.000 C 
ATOM      2  C   UNL     1       8.476  -6.550   1.226  0.00  0.00    +0.000 C 
ATOM      3  C   UNL     1       7.319  -6.650   0.270  0.00  0.00    +0.000 C 
ATOM      4  N   UNL     1       9.040  -7.770   1.576  0.00  0.00    +0.000 N 
ATOM      5  C   UNL     1      10.321  -7.928   2.088  0.00  0.00    +0.000 C 
ATOM      6  C   UNL     1      10.885  -9.327   2.002  0.00  0.00    +0.000 C 
ATOM      7  C   UNL     1      10.978  -6.860   2.609  0.00  0.00    +0.000 C 
ATOM      8  C   UNL     1      10.239  -5.499   2.665  0.00  0.00    +0.000 C 
ATOM      9  H   UNL     1       8.574  -8.609   1.238  0.00  0.00    +0.000 HD
ENDROOT
BRANCH   8  10
ATOM     10  C   UNL     1       9.766  -5.242   4.106  0.00  0.00    +0.000 A 
ATOM     11  C   UNL     1       8.813  -6.120   4.685  0.00  0.00    +0.000 A 
ATOM     12  C   UNL     1       8.352  -5.942   5.986  0.00  0.00    +0.000 A 
ATOM     13  C   UNL     1       8.853  -4.896   6.749  0.00  0.00    +0.000 A 
ATOM     14  C   UNL     1       9.805  -4.024   6.209  0.00  0.00    +0.000 A 
ATOM     15 CL   UNL     1      10.403  -2.774   7.247  0.00  0.00    +0.000 Cl
ATOM     16  C   UNL     1      10.252  -4.176   4.885  0.00  0.00    +0.000 A 
ATOM     17 CL   UNL     1      11.387  -3.043   4.223  0.00  0.00    +0.000 Cl
ENDBRANCH   8  10
BRANCH   1  18
ATOM     18  C   UNL     1       8.554  -4.034   1.302  0.00  0.00    +0.000 C 
ATOM     19  O   UNL     1       9.348  -3.145   1.012  0.00  0.00    +0.000 OA
BRANCH  18  20
ATOM     20  O   UNL     1       7.197  -3.888   1.298  0.00  0.00    +0.000 OA
BRANCH  20  21
ATOM     21  C   UNL     1       6.689  -2.612   0.811  0.00  0.00    +0.000 C 
BRANCH  21  22
ATOM     22  O   UNL     1       5.231  -2.601   0.787  0.00  0.00    +0.000 OA
BRANCH  22  23
ATOM     23  C   UNL     1       4.680  -1.415   0.380  0.00  0.00    +0.000 C 
ATOM     24  O   UNL     1       5.339  -0.437   0.046  0.00  0.00    +0.000 OA
BRANCH  23  25
ATOM     25  C   UNL     1       3.152  -1.446   0.388  0.00  0.00    +0.000 C 
BRANCH  25  27
ATOM     26  C   UNL     1       1.034  -0.085  -0.069  0.00  0.00    +0.000 C 
ATOM     27  C   UNL     1       2.557  -0.099  -0.064  0.00  0.00    +0.000 C 
ENDBRANCH  25  27
ENDBRANCH  23  25
ENDBRANCH  22  23
ENDBRANCH  21  22
ENDBRANCH  20  21
ENDBRANCH  18  20
ENDBRANCH   1  18
BRANCH   7  28
ATOM     28  C   UNL     1      12.376  -7.020   3.141  0.00  0.00    +0.000 C 
ATOM     29  O   UNL     1      12.998  -8.077   3.130  0.00  0.00    +0.000 OA
BRANCH  28  30
ATOM     30  O   UNL     1      12.898  -5.872   3.642  0.00  0.00    +0.000 OA
ATOM     31  C   UNL     1      14.241  -6.013   4.146  0.00  0.00    +0.000 C 
ENDBRANCH  28  30
ENDBRANCH   7  28
TORSDOF 10
