REMARK  Name = Clidinium
REMARK  7 active torsions:
REMARK  status: ('A' for Active; 'I' for Inactive)
REMARK    1  A    between atoms: C_1  and  N_2
REMARK    2  A    between atoms: C_8  and  O_10
REMARK    3  A    between atoms: O_10  and  C_11
REMARK    4  A    between atoms: C_11  and  C_13
REMARK    5  A    between atoms: C_13  and  O_14
REMARK    6  A    between atoms: C_13  and  C_15
REMARK    7  A    between atoms: C_13  and  C_21
REMARK                            x       y       z     vdW  Elec       q    Type
REMARK                         _______ _______ _______ _____ _____    ______ ____
ROOT
ATOM      1  C   UNL     1       2.948   4.001   0.095  0.00  0.00    +0.000 C 
ENDROOT
BRANCH   1   2
ATOM      2  C   UNL     1       2.088   3.863   1.379  0.00  0.00    +0.000 A 
ATOM      3  C   UNL     1       2.459   4.497   2.565  0.00  0.00    +0.000 A 
ATOM      4  C   UNL     1       1.711   4.350   3.727  0.00  0.00    +0.000 A 
ATOM      5  C   UNL     1       0.685   3.417   3.788  0.00  0.00    +0.000 A 
ATOM      6  C   UNL     1       0.351   2.691   2.659  0.00  0.00    +0.000 A 
ATOM      7  C   UNL     1       0.947   3.028   1.446  0.00  0.00    +0.000 A 
ENDBRANCH   1   2
BRANCH   1   8
ATOM      8  C   UNL     1       2.800   5.380  -0.543  0.00  0.00    +0.000 A 
ATOM      9  C   UNL     1       2.509   5.563  -1.909  0.00  0.00    +0.000 A 
ATOM     10  C   UNL     1       2.461   6.845  -2.450  0.00  0.00    +0.000 A 
ATOM     11  C   UNL     1       2.603   7.958  -1.624  0.00  0.00    +0.000 A 
ATOM     12  C   UNL     1       2.861   7.796  -0.275  0.00  0.00    +0.000 A 
ATOM     13  C   UNL     1       3.005   6.524   0.235  0.00  0.00    +0.000 A 
ENDBRANCH   1   8
BRANCH   1  14
ATOM     14  C   UNL     1       4.493   3.642   0.336  0.00  0.00    +0.000 C 
ATOM     15  O   UNL     1       5.377   4.468   0.170  0.00  0.00    +0.000 OA
BRANCH  14  16
ATOM     16  O   UNL     1       4.902   2.388   0.693  0.00  0.00    +0.000 OA
BRANCH  16  24
ATOM     17  C   UNL     1       0.912  -0.099  -0.083  0.00  0.00    +0.000 C 
ATOM     18  N   UNL     1       2.440  -0.090  -0.059  0.00  0.00    +0.000 N 
ATOM     19  C   UNL     1       2.964  -1.477   0.274  0.00  0.00    +0.000 C 
ATOM     20  C   UNL     1       4.499  -1.396   0.281  0.00  0.00    +0.000 C 
ATOM     21  C   UNL     1       5.017   0.027  -0.045  0.00  0.00    +0.000 C 
ATOM     22  C   UNL     1       4.474   0.425  -1.427  0.00  0.00    +0.000 C 
ATOM     23  C   UNL     1       2.960   0.237  -1.487  0.00  0.00    +0.000 C 
ATOM     24  C   UNL     1       4.473   1.007   1.011  0.00  0.00    +0.000 C 
ATOM     25  C   UNL     1       2.982   0.784   1.098  0.00  0.00    +0.000 C 
ENDBRANCH  16  24
ENDBRANCH  14  16
ENDBRANCH   1  14
BRANCH   1  26
ATOM     26  O   UNL     1       2.395   3.137  -0.898  0.00  0.00    +0.000 OA
ATOM     27  H   UNL     1       2.796   2.302  -0.696  0.00  0.00    +0.000 HD
ENDBRANCH   1  26
TORSDOF 6
