REMARK  Name = Clindamycin
REMARK  14 active torsions:
REMARK  status: ('A' for Active; 'I' for Inactive)
REMARK    1  A    between atoms: C_2  and  N_3
REMARK    2  A    between atoms: C_2  and  C_15
REMARK    3  A    between atoms: C_2  and  C_18
REMARK    4  A    between atoms: C_4  and  C_6
REMARK    5  A    between atoms: C_8  and  C_9
REMARK    6  A    between atoms: C_9  and  C_10
REMARK    7  A    between atoms: C_10  and  C_11
REMARK    8  A    between atoms: N_13  and  C_14
REMARK    9  A    between atoms: C_15  and  C_16
REMARK   10  A    between atoms: C_21  and  S_22
REMARK   11  A    between atoms: S_22  and  C_23
REMARK   12  A    between atoms: C_24  and  O_25
REMARK   13  A    between atoms: C_26  and  O_27
REMARK   14  A    between atoms: C_28  and  O_29
REMARK                            x       y       z     vdW  Elec       q    Type
REMARK                         _______ _______ _______ _____ _____    ______ ____
ROOT
ATOM      1  C   UNL     1       3.821   3.330   1.856  0.00  0.00    +0.000 C 
ENDROOT
BRANCH   1   2
ATOM      2  C   UNL     1       2.549   2.426   2.096  0.00  0.00    +0.000 C 
ATOM      3  O   UNL     1       1.633   2.943   3.095  0.00  0.00    +0.000 OA
ATOM      4  C   UNL     1       0.639   1.942   3.493  0.00  0.00    +0.000 C 
ATOM      5  C   UNL     1      -0.209   1.542   2.262  0.00  0.00    +0.000 C 
ATOM      6  C   UNL     1       0.714   0.979   1.165  0.00  0.00    +0.000 C 
ATOM      7  C   UNL     1       1.742   2.042   0.837  0.00  0.00    +0.000 C 
BRANCH   4   8
ATOM      8  S   UNL     1       1.522   0.547   4.373  0.00  0.00    +0.000 S 
ATOM      9  C   UNL     1       0.245  -0.696   4.643  0.00  0.00    +0.000 C 
ENDBRANCH   4   8
BRANCH   5  10
ATOM     10  O   UNL     1      -1.256   0.631   2.574  0.00  0.00    +0.000 OA
ATOM     11  H   UNL     1      -0.950  -0.234   2.248  0.00  0.00    +0.000 HD
ENDBRANCH   5  10
BRANCH   6  12
ATOM     12  O   UNL     1      -0.047   0.694  -0.019  0.00  0.00    +0.000 OA
ATOM     13  H   UNL     1      -0.277   1.577  -0.381  0.00  0.00    +0.000 HD
ENDBRANCH   6  12
BRANCH   7  14
ATOM     14  O   UNL     1       0.924   3.097   0.337  0.00  0.00    +0.000 OA
ATOM     15  H   UNL     1       0.955   3.828   0.991  0.00  0.00    +0.000 HD
ENDBRANCH   7  14
ENDBRANCH   1   2
BRANCH   1  16
ATOM     16  N   UNL     1       4.125   3.440   0.407  0.00  0.00    +0.000 N 
ATOM     17  C   UNL     1       3.381   4.352  -0.269  0.00  0.00    +0.000 C 
ATOM     18  O   UNL     1       2.721   5.142   0.443  0.00  0.00    +0.000 OA
ATOM     19  H   UNL     1       4.984   3.110  -0.018  0.00  0.00    +0.000 HD
BRANCH  17  20
ATOM     20  C   UNL     1       3.144   4.228  -1.796  0.00  0.00    +0.000 C 
ATOM     21  C   UNL     1       4.240   4.491  -2.864  0.00  0.00    +0.000 C 
ATOM     22  C   UNL     1       3.560   5.429  -3.904  0.00  0.00    +0.000 C 
ATOM     23  C   UNL     1       2.121   5.524  -3.444  0.00  0.00    +0.000 C 
ATOM     24  N   UNL     1       2.177   5.312  -2.044  0.00  0.00    +0.000 NA
ATOM     25  C   UNL     1       0.824   5.118  -1.536  0.00  0.00    +0.000 C 
BRANCH  22  26
ATOM     26  C   UNL     1       3.593   5.006  -5.388  0.00  0.00    +0.000 C 
BRANCH  26  27
ATOM     27  C   UNL     1       2.280   5.345  -6.129  0.00  0.00    +0.000 C 
ATOM     28  C   UNL     1       2.284   4.934  -7.576  0.00  0.00    +0.000 C 
ENDBRANCH  26  27
ENDBRANCH  22  26
ENDBRANCH  17  20
ENDBRANCH   1  16
BRANCH   1  29
ATOM     29  C   UNL     1       5.069   2.972   2.707  0.00  0.00    +0.000 C 
ATOM     30  C   UNL     1       6.346   3.521   2.075  0.00  0.00    +0.000 C 
ATOM     31 CL   UNL     1       5.329   1.211   2.918  0.00  0.00    +0.000 Cl
ENDBRANCH   1  29
TORSDOF 10
