REMARK  Name = Clioquinol
REMARK  1 active torsions:
REMARK  status: ('A' for Active; 'I' for Inactive)
REMARK    1  A    between atoms: O_1  and  C_2
REMARK                            x       y       z     vdW  Elec       q    Type
REMARK                         _______ _______ _______ _____ _____    ______ ____
ROOT
ATOM      1  C   UNL     1       2.315   0.075   0.043  0.00  0.00    +0.000 A 
ATOM      2  C   UNL     1       2.967  -1.161  -0.028  0.00  0.00    +0.000 A 
ATOM      3  I   UNL     1       1.911  -2.957  -0.179  0.00  0.00    +0.000 I 
ATOM      4  C   UNL     1       4.357  -1.216  -0.022  0.00  0.00    +0.000 A 
ATOM      5  C   UNL     1       5.087  -0.035   0.056  0.00  0.00    +0.000 A 
ATOM      6 CL   UNL     1       6.816  -0.182   0.020  0.00  0.00    +0.000 Cl
ATOM      7  C   UNL     1       4.445   1.221   0.088  0.00  0.00    +0.000 A 
ATOM      8  C   UNL     1       3.027   1.282   0.089  0.00  0.00    +0.000 A 
ATOM      9  N   UNL     1       2.380   2.467   0.085  0.00  0.00    +0.000 NA
ATOM     10  C   UNL     1       3.091   3.604  -0.056  0.00  0.00    +0.000 A 
ATOM     11  C   UNL     1       4.465   3.634  -0.137  0.00  0.00    +0.000 A 
ATOM     12  C   UNL     1       5.144   2.442   0.044  0.00  0.00    +0.000 A 
ENDROOT
BRANCH   1  13
ATOM     13  O   UNL     1       0.936   0.138   0.025  0.00  0.00    +0.000 OA
ATOM     14  H   UNL     1       0.583  -0.765  -0.040  0.00  0.00    +0.000 HD
ENDBRANCH   1  13
TORSDOF 1
