REMARK  Name = Clobetasol
REMARK  7 active torsions:
REMARK  status: ('A' for Active; 'I' for Inactive)
REMARK    1  A    between atoms: C_4  and  C_5
REMARK    2  A    between atoms: C_6  and  O_7
REMARK    3  A    between atoms: C_6  and  C_8
REMARK    4  A    between atoms: C_8  and  C_10
REMARK    5  A    between atoms: C_12  and  C_13
REMARK    6  A    between atoms: C_15  and  O_16
REMARK    7  A    between atoms: C_29  and  C_30
REMARK                            x       y       z     vdW  Elec       q    Type
REMARK                         _______ _______ _______ _____ _____    ______ ____
ROOT
ATOM      1  C   UNL     1       1.800   0.038  -0.101  0.00  0.00    +0.000 C 
ATOM      2  C   UNL     1       2.190   0.153  -1.456  0.00  0.00    +0.000 C 
ATOM      3  C   UNL     1       3.349  -0.351  -0.671  0.00  0.00    +0.000 C 
ATOM      4  C   UNL     1       4.306  -0.208  -2.249  0.00  0.00    +0.000 C 
ATOM      5  C   UNL     1       2.816  -0.965   1.243  0.00  0.00    +0.000 C 
ATOM      6  C   UNL     1       2.745  -1.601   0.062  0.00  0.00    +0.000 C 
ATOM      7  C   UNL     1       1.935  -2.778  -0.320  0.00  0.00    +0.000 C 
ATOM      8  C   UNL     1       4.544  -1.597   0.536  0.00  0.00    +0.000 C 
ATOM      9  C   UNL     1       4.954  -0.011   1.385  0.00  0.00    +0.000 C 
ATOM     10  C   UNL     1       4.080   1.489   1.016  0.00  0.00    +0.000 C 
ATOM     11  F   UNL     1       3.956   1.560  -0.393  0.00  0.00    +0.000 F 
ATOM     12  C   UNL     1       2.445   1.401   0.959  0.00  0.00    +0.000 C 
ATOM     13  C   UNL     1       1.959   2.662   0.214  0.00  0.00    +0.000 C 
ATOM     14  C   UNL     1       2.652   3.882   0.728  0.00  0.00    +0.000 C 
ATOM     15  C   UNL     1       4.073   3.835   0.219  0.00  0.00    +0.000 C 
ATOM     16  C   UNL     1       4.720   4.877  -0.348  0.00  0.00    +0.000 C 
ATOM     17  C   UNL     1       4.572   5.748   0.804  0.00  0.00    +0.000 C 
ATOM     18  O   UNL     1       3.730   6.614   0.916  0.00  0.00    +0.000 OA
ATOM     19  C   UNL     1       5.583   5.269   1.806  0.00  0.00    +0.000 C 
ATOM     20  C   UNL     1       5.769   3.875   1.879  0.00  0.00    +0.000 C 
ATOM     21  C   UNL     1       5.016   2.830   0.856  0.00  0.00    +0.000 C 
ATOM     22  C   UNL     1       5.884   2.390  -0.486  0.00  0.00    +0.000 C 
ENDROOT
BRANCH   5  23
ATOM     23  O   UNL     1       1.342  -0.921   1.730  0.00  0.00    +0.000 OA
ATOM     24  H   UNL     1       1.173  -1.021   2.674  0.00  0.00    +0.000 HD
ENDBRANCH   5  23
BRANCH   5  25
ATOM     25  C   UNL     1       2.997  -2.445   2.358  0.00  0.00    +0.000 C 
ATOM     26  O   UNL     1       3.441  -3.523   1.937  0.00  0.00    +0.000 OA
BRANCH  25  27
ATOM     27  C   UNL     1       2.515  -2.516   3.899  0.00  0.00    +0.000 C 
ATOM     28 CL   UNL     1       3.124  -4.139   4.603  0.00  0.00    +0.000 Cl
ENDBRANCH  25  27
ENDBRANCH   5  25
BRANCH   9  29
ATOM     29  O   UNL     1       4.873  -0.259   2.802  0.00  0.00    +0.000 OA
ATOM     30  H   UNL     1       3.961  -0.142   3.109  0.00  0.00    +0.000 HD
ENDBRANCH   9  29
TORSDOF 4
