REMARK  Name = Clobazam
REMARK  2 active torsions:
REMARK  status: ('A' for Active; 'I' for Inactive)
REMARK    1  A    between atoms: C_1  and  N_2
REMARK    2  A    between atoms: N_10  and  C_11
REMARK                            x       y       z     vdW  Elec       q    Type
REMARK                         _______ _______ _______ _____ _____    ______ ____
ROOT
ATOM      1  C   UNL     1       1.040  -0.035   0.061  0.00  0.00    +0.000 C 
ATOM      2  N   UNL     1       2.488  -0.053   0.029  0.00  0.00    +0.000 N 
ATOM      3  C   UNL     1       3.200  -0.714   1.044  0.00  0.00    +0.000 A 
ATOM      4  C   UNL     1       3.849  -0.005   2.084  0.00  0.00    +0.000 A 
ATOM      5  C   UNL     1       4.678  -0.754   2.936  0.00  0.00    +0.000 A 
ATOM      6  C   UNL     1       4.836  -2.142   2.748  0.00  0.00    +0.000 A 
ATOM      7 CL   UNL     1       5.889  -3.043   3.774  0.00  0.00    +0.000 Cl
ATOM      8  C   UNL     1       4.180  -2.816   1.722  0.00  0.00    +0.000 A 
ATOM      9  C   UNL     1       3.350  -2.099   0.874  0.00  0.00    +0.000 A 
ATOM     10  N   UNL     1       3.760   1.436   2.125  0.00  0.00    +0.000 N 
ATOM     11  C   UNL     1       4.279   2.139   1.027  0.00  0.00    +0.000 C 
ATOM     12  O   UNL     1       5.360   2.733   1.072  0.00  0.00    +0.000 OA
ATOM     13  C   UNL     1       3.463   2.134  -0.242  0.00  0.00    +0.000 C 
ATOM     14  C   UNL     1       3.205   0.775  -0.798  0.00  0.00    +0.000 C 
ATOM     15  O   UNL     1       3.595   0.412  -1.913  0.00  0.00    +0.000 OA
ENDROOT
BRANCH  10  16
ATOM     16  C   UNL     1       3.144   2.122   3.250  0.00  0.00    +0.000 A 
ATOM     17  C   UNL     1       2.130   3.092   3.054  0.00  0.00    +0.000 A 
ATOM     18  C   UNL     1       1.547   3.802   4.133  0.00  0.00    +0.000 A 
ATOM     19  C   UNL     1       1.925   3.532   5.441  0.00  0.00    +0.000 A 
ATOM     20  C   UNL     1       2.868   2.537   5.664  0.00  0.00    +0.000 A 
ATOM     21  C   UNL     1       3.487   1.868   4.584  0.00  0.00    +0.000 A 
ENDBRANCH  10  16
TORSDOF 1
