REMARK  Name = Clobetasone
REMARK  6 active torsions:
REMARK  status: ('A' for Active; 'I' for Inactive)
REMARK    1  A    between atoms: C_2  and  C_3
REMARK    2  A    between atoms: C_17  and  C_18
REMARK    3  A    between atoms: C_24  and  C_25
REMARK    4  A    between atoms: C_26  and  O_27
REMARK    5  A    between atoms: C_26  and  C_28
REMARK    6  A    between atoms: C_28  and  C_30
REMARK                            x       y       z     vdW  Elec       q    Type
REMARK                         _______ _______ _______ _____ _____    ______ ____
ROOT
ATOM      1  C   UNL     1       1.766   0.404   0.177  0.00  0.00    +0.000 C 
ATOM      2  C   UNL     1       0.245   0.426  -0.001  0.00  0.00    +0.000 C 
ATOM      3  C   UNL     1       2.671   0.026   1.425  0.00  0.00    +0.000 C 
ATOM      4  C   UNL     1       2.498  -1.540   1.812  0.00  0.00    +0.000 C 
ATOM      5  C   UNL     1       2.368  -2.908   0.823  0.00  0.00    +0.000 C 
ATOM      6  C   UNL     1       3.692  -2.984   0.173  0.00  0.00    +0.000 C 
ATOM      7  C   UNL     1       3.560  -4.001  -0.896  0.00  0.00    +0.000 C 
ATOM      8  C   UNL     1       3.643  -5.212  -0.078  0.00  0.00    +0.000 C 
ATOM      9  C   UNL     1       4.418  -6.262  -0.389  0.00  0.00    +0.000 C 
ATOM     10  C   UNL     1       4.020  -6.412  -1.783  0.00  0.00    +0.000 C 
ATOM     11  O   UNL     1       4.727  -6.175  -2.696  0.00  0.00    +0.000 OA
ATOM     12  C   UNL     1       2.574  -6.898  -1.664  0.00  0.00    +0.000 C 
ATOM     13  C   UNL     1       1.756  -6.480  -0.592  0.00  0.00    +0.000 C 
ATOM     14  C   UNL     1       2.405  -5.541   0.694  0.00  0.00    +0.000 C 
ATOM     15  C   UNL     1       3.098  -6.119   1.961  0.00  0.00    +0.000 C 
ATOM     16  C   UNL     1       2.004  -4.214   1.459  0.00  0.00    +0.000 C 
ATOM     17  F   UNL     1       2.877  -3.997   2.529  0.00  0.00    +0.000 F 
ATOM     18  C   UNL     1       0.700  -4.163   2.146  0.00  0.00    +0.000 C 
ATOM     19  O   UNL     1       0.071  -5.119   2.621  0.00  0.00    +0.000 OA
ATOM     20  C   UNL     1       0.609  -2.799   2.668  0.00  0.00    +0.000 C 
ATOM     21  C   UNL     1       1.074  -1.457   1.616  0.00  0.00    +0.000 C 
ATOM     22  C   UNL     1       0.340  -0.492   2.864  0.00  0.00    +0.000 C 
ATOM     23  C   UNL     1       1.829  -1.000  -0.210  0.00  0.00    +0.000 C 
ENDROOT
BRANCH  23  24
ATOM     24  O   UNL     1       1.243  -1.752  -1.280  0.00  0.00    +0.000 OA
ATOM     25  H   UNL     1       1.989  -2.331  -1.562  0.00  0.00    +0.000 HD
ENDBRANCH  23  24
BRANCH  23  26
ATOM     26  C   UNL     1       2.977  -0.633  -1.694  0.00  0.00    +0.000 C 
ATOM     27  O   UNL     1       2.587   0.267  -2.476  0.00  0.00    +0.000 OA
BRANCH  26  28
ATOM     28  C   UNL     1       4.117  -1.653  -2.447  0.00  0.00    +0.000 C 
ATOM     29 CL   UNL     1       4.550  -1.185  -4.173  0.00  0.00    +0.000 Cl
ENDBRANCH  26  28
ENDBRANCH  23  26
TORSDOF 3
