REMARK  Name = Clobetasol propionate
REMARK  10 active torsions:
REMARK  status: ('A' for Active; 'I' for Inactive)
REMARK    1  A    between atoms: C_4  and  C_5
REMARK    2  A    between atoms: C_6  and  O_7
REMARK    3  A    between atoms: C_6  and  C_12
REMARK    4  A    between atoms: O_7  and  C_8
REMARK    5  A    between atoms: C_8  and  C_10
REMARK    6  A    between atoms: C_10  and  C_11
REMARK    7  A    between atoms: C_12  and  C_14
REMARK    8  A    between atoms: C_16  and  C_17
REMARK    9  A    between atoms: C_19  and  O_20
REMARK   10  A    between atoms: C_33  and  C_34
REMARK                            x       y       z     vdW  Elec       q    Type
REMARK                         _______ _______ _______ _____ _____    ______ ____
ROOT
ATOM      1  C   UNL     1       1.738  -0.047  -0.124  0.00  0.00    +0.000 C 
ATOM      2  C   UNL     1       2.094   0.085  -1.487  0.00  0.00    +0.000 C 
ATOM      3  C   UNL     1       3.208  -0.413  -0.667  0.00  0.00    +0.000 C 
ATOM      4  C   UNL     1       4.182  -0.263  -2.234  0.00  0.00    +0.000 C 
ATOM      5  C   UNL     1       2.583  -0.971   1.236  0.00  0.00    +0.000 C 
ATOM      6  C   UNL     1       2.632  -1.677   0.088  0.00  0.00    +0.000 C 
ATOM      7  C   UNL     1       1.801  -2.845  -0.289  0.00  0.00    +0.000 C 
ATOM      8  C   UNL     1       4.398  -1.664   0.583  0.00  0.00    +0.000 C 
ATOM      9  C   UNL     1       4.808  -0.086   1.421  0.00  0.00    +0.000 C 
ATOM     10  C   UNL     1       3.982   1.419   1.018  0.00  0.00    +0.000 C 
ATOM     11  F   UNL     1       3.865   1.478  -0.380  0.00  0.00    +0.000 F 
ATOM     12  C   UNL     1       2.410   1.341   0.949  0.00  0.00    +0.000 C 
ATOM     13  C   UNL     1       1.867   2.599   0.225  0.00  0.00    +0.000 C 
ATOM     14  C   UNL     1       2.511   3.822   0.770  0.00  0.00    +0.000 C 
ATOM     15  C   UNL     1       3.925   3.767   0.264  0.00  0.00    +0.000 C 
ATOM     16  C   UNL     1       4.566   4.786  -0.349  0.00  0.00    +0.000 C 
ATOM     17  C   UNL     1       4.443   5.708   0.760  0.00  0.00    +0.000 C 
ATOM     18  O   UNL     1       3.572   6.547   0.867  0.00  0.00    +0.000 OA
ATOM     19  C   UNL     1       5.467   5.216   1.757  0.00  0.00    +0.000 C 
ATOM     20  C   UNL     1       5.609   3.829   1.929  0.00  0.00    +0.000 C 
ATOM     21  C   UNL     1       4.868   2.767   0.912  0.00  0.00    +0.000 C 
ATOM     22  C   UNL     1       5.752   2.332  -0.427  0.00  0.00    +0.000 C 
ENDROOT
BRANCH   5  23
ATOM     23  C   UNL     1       2.766  -2.433   2.388  0.00  0.00    +0.000 C 
ATOM     24  O   UNL     1       3.234  -3.513   1.984  0.00  0.00    +0.000 OA
BRANCH  23  25
ATOM     25  C   UNL     1       2.304  -2.513   3.923  0.00  0.00    +0.000 C 
ATOM     26 CL   UNL     1       2.954  -4.185   4.614  0.00  0.00    +0.000 Cl
ENDBRANCH  23  25
ENDBRANCH   5  23
BRANCH   9  27
ATOM     27  O   UNL     1       4.708  -0.331   2.835  0.00  0.00    +0.000 OA
ATOM     28  H   UNL     1       3.796  -0.206   3.142  0.00  0.00    +0.000 HD
ENDBRANCH   9  27
BRANCH   5  29
ATOM     29  O   UNL     1       0.888  -1.055   1.686  0.00  0.00    +0.000 OA
BRANCH  29  30
ATOM     30  C   UNL     1      -0.041  -0.040   1.827  0.00  0.00    +0.000 C 
ATOM     31  O   UNL     1       0.248   1.149   1.844  0.00  0.00    +0.000 OA
BRANCH  30  32
ATOM     32  C   UNL     1      -1.527  -0.264   1.847  0.00  0.00    +0.000 C 
ATOM     33  C   UNL     1      -2.147   1.027   1.203  0.00  0.00    +0.000 C 
ENDBRANCH  30  32
ENDBRANCH  29  30
ENDBRANCH   5  29
TORSDOF 6
