REMARK  Name = Clocortolone
REMARK  7 active torsions:
REMARK  status: ('A' for Active; 'I' for Inactive)
REMARK    1  A    between atoms: C_4  and  C_5
REMARK    2  A    between atoms: C_6  and  C_7
REMARK    3  A    between atoms: C_7  and  C_9
REMARK    4  A    between atoms: C_9  and  O_10
REMARK    5  A    between atoms: C_11  and  C_12
REMARK    6  A    between atoms: C_14  and  O_15
REMARK    7  A    between atoms: C_29  and  C_30
REMARK                            x       y       z     vdW  Elec       q    Type
REMARK                         _______ _______ _______ _____ _____    ______ ____
ROOT
ATOM      1  C   UNL     1       1.706  -0.074  -0.001  0.00  0.00    +0.000 C 
ATOM      2  C   UNL     1       2.165  -0.108  -1.368  0.00  0.00    +0.000 C 
ATOM      3  C   UNL     1       3.576  -0.558  -0.599  0.00  0.00    +0.000 C 
ATOM      4  C   UNL     1       5.301  -0.227  -1.207  0.00  0.00    +0.000 C 
ATOM      5  C   UNL     1       2.957  -0.974   1.307  0.00  0.00    +0.000 C 
ATOM      6  C   UNL     1       2.644  -1.635   0.220  0.00  0.00    +0.000 C 
ATOM      7  C   UNL     1       1.851  -2.814  -0.190  0.00  0.00    +0.000 C 
ATOM      8  C   UNL     1       4.486  -1.661   0.769  0.00  0.00    +0.000 C 
ATOM      9  C   UNL     1       4.920   0.010   1.544  0.00  0.00    +0.000 C 
ATOM     10  C   UNL     1       4.031   1.534   1.099  0.00  0.00    +0.000 C 
ATOM     11 CL   UNL     1       3.802   1.763  -0.672  0.00  0.00    +0.000 Cl
ATOM     12  C   UNL     1       2.311   1.413   0.978  0.00  0.00    +0.000 C 
ATOM     13  C   UNL     1       1.717   2.775   0.326  0.00  0.00    +0.000 C 
ATOM     14  C   UNL     1       2.504   4.004   0.802  0.00  0.00    +0.000 C 
ATOM     15  F   UNL     1       1.914   5.068   0.196  0.00  0.00    +0.000 F 
ATOM     16  C   UNL     1       3.974   4.023   0.387  0.00  0.00    +0.000 C 
ATOM     17  C   UNL     1       4.609   5.045  -0.220  0.00  0.00    +0.000 C 
ATOM     18  C   UNL     1       4.532   5.873   0.967  0.00  0.00    +0.000 C 
ATOM     19  O   UNL     1       3.747   6.785   1.099  0.00  0.00    +0.000 OA
ATOM     20  C   UNL     1       5.573   5.373   1.944  0.00  0.00    +0.000 C 
ATOM     21  C   UNL     1       5.730   3.976   1.980  0.00  0.00    +0.000 C 
ATOM     22  C   UNL     1       4.968   2.995   0.947  0.00  0.00    +0.000 C 
ATOM     23  C   UNL     1       6.033   2.716  -0.360  0.00  0.00    +0.000 C 
ENDROOT
BRANCH   5  24
ATOM     24  C   UNL     1       2.929  -2.481   2.446  0.00  0.00    +0.000 C 
ATOM     25  O   UNL     1       3.297  -3.602   2.042  0.00  0.00    +0.000 OA
BRANCH  24  26
ATOM     26  C   UNL     1       2.449  -2.557   3.975  0.00  0.00    +0.000 C 
BRANCH  26  27
ATOM     27  O   UNL     1       2.892  -3.819   4.580  0.00  0.00    +0.000 OA
ATOM     28  H   UNL     1       2.635  -4.555   3.986  0.00  0.00    +0.000 HD
ENDBRANCH  26  27
ENDBRANCH  24  26
ENDBRANCH   5  24
BRANCH   9  29
ATOM     29  O   UNL     1       4.796  -0.200   2.982  0.00  0.00    +0.000 OA
ATOM     30  H   UNL     1       3.863  -0.174   3.242  0.00  0.00    +0.000 HD
ENDBRANCH   9  29
TORSDOF 4
