REMARK  Name = Clodronic acid
REMARK  6 active torsions:
REMARK  status: ('A' for Active; 'I' for Inactive)
REMARK    1  A    between atoms: O_1  and  P_2
REMARK    2  A    between atoms: P_2  and  O_3
REMARK    3  A    between atoms: P_2  and  C_5
REMARK    4  A    between atoms: C_5  and  P_8
REMARK    5  A    between atoms: P_8  and  O_9
REMARK    6  A    between atoms: P_8  and  O_10
REMARK                            x       y       z     vdW  Elec       q    Type
REMARK                         _______ _______ _______ _____ _____    ______ ____
ROOT
ATOM      1  C   UNL     1       4.537  -0.097  -0.009  0.00  0.00    +0.000 C 
ATOM      2 CL   UNL     1       5.265  -0.943   1.381  0.00  0.00    +0.000 Cl
ATOM      3 CL   UNL     1       5.045  -0.917  -1.522  0.00  0.00    +0.000 Cl
ENDROOT
BRANCH   1   4
ATOM      4  P   UNL     1       2.707  -0.097  -0.009  0.00  0.00    +0.000 P 
ATOM      5  O   UNL     1       2.611   0.300   1.464  0.00  0.00    +0.000 OA
BRANCH   4   6
ATOM      6  O   UNL     1       0.977  -0.097  -0.009  0.00  0.00    +0.000 OA
ATOM      7  H   UNL     1       0.724   0.397   0.806  0.00  0.00    +0.000 HD
ENDBRANCH   4   6
BRANCH   4   8
ATOM      8  O   UNL     1       2.479   1.242  -0.923  0.00  0.00    +0.000 OA
ATOM      9  H   UNL     1       1.505   1.399  -0.987  0.00  0.00    +0.000 HD
ENDBRANCH   4   8
ENDBRANCH   1   4
BRANCH   1  10
ATOM     10  P   UNL     1       5.231   1.639  -0.043  0.00  0.00    +0.000 P 
ATOM     11  O   UNL     1       6.720   1.762  -0.181  0.00  0.00    +0.000 OA
BRANCH  10  12
ATOM     12  O   UNL     1       4.453   2.487  -1.175  0.00  0.00    +0.000 OA
ATOM     13  H   UNL     1       3.557   2.138  -1.401  0.00  0.00    +0.000 HD
ENDBRANCH  10  12
BRANCH  10  14
ATOM     14  O   UNL     1       4.679   2.296   1.321  0.00  0.00    +0.000 OA
ATOM     15  H   UNL     1       4.621   1.661   2.068  0.00  0.00    +0.000 HD
ENDBRANCH  10  14
ENDBRANCH   1  10
TORSDOF 6
