REMARK  Name = Clofarabine
REMARK  5 active torsions:
REMARK  status: ('A' for Active; 'I' for Inactive)
REMARK    1  A    between atoms: C_4  and  O_5
REMARK    2  A    between atoms: C_6  and  C_7
REMARK    3  A    between atoms: C_7  and  O_8
REMARK    4  A    between atoms: C_10  and  N_11
REMARK    5  A    between atoms: C_15  and  N_16
REMARK                            x       y       z     vdW  Elec       q    Type
REMARK                         _______ _______ _______ _____ _____    ______ ____
ROOT
ATOM      1  N   UNL     1       3.009  -1.498  -1.900  0.00  0.00    +0.000 N 
ATOM      2  C   UNL     1       3.804  -2.364  -1.193  0.00  0.00    +0.000 A 
ATOM      3  N   UNL     1       3.910  -3.548  -1.749  0.00  0.00    +0.000 NA
ATOM      4  C   UNL     1       3.067  -3.485  -2.817  0.00  0.00    +0.000 A 
ATOM      5  C   UNL     1       2.699  -4.489  -3.727  0.00  0.00    +0.000 A 
ATOM      6  N   UNL     1       1.819  -4.182  -4.695  0.00  0.00    +0.000 NA
ATOM      7  C   UNL     1       1.346  -2.917  -4.721  0.00  0.00    +0.000 A 
ATOM      8 CL   UNL     1       0.235  -2.607  -5.990  0.00  0.00    +0.000 Cl
ATOM      9  N   UNL     1       1.606  -1.862  -3.899  0.00  0.00    +0.000 NA
ATOM     10  C   UNL     1       2.491  -2.222  -2.953  0.00  0.00    +0.000 A 
ENDROOT
BRANCH   1  16
ATOM     11  C   UNL     1       2.074  -0.031  -0.085  0.00  0.00    +0.000 C 
ATOM     12  F   UNL     1       2.436  -1.064   0.721  0.00  0.00    +0.000 F 
ATOM     13  C   UNL     1       2.671   1.229   0.496  0.00  0.00    +0.000 C 
ATOM     14  C   UNL     1       4.045   1.328  -0.166  0.00  0.00    +0.000 C 
ATOM     15  O   UNL     1       3.949   0.643  -1.442  0.00  0.00    +0.000 OA
ATOM     16  C   UNL     1       2.714  -0.137  -1.474  0.00  0.00    +0.000 C 
BRANCH  13  17
ATOM     17  O   UNL     1       1.855   2.362   0.171  0.00  0.00    +0.000 OA
ATOM     18  H   UNL     1       1.861   2.512  -0.790  0.00  0.00    +0.000 HD
ENDBRANCH  13  17
BRANCH  14  19
ATOM     19  C   UNL     1       5.205   0.761   0.678  0.00  0.00    +0.000 C 
BRANCH  19  20
ATOM     20  O   UNL     1       5.601  -0.540   0.288  0.00  0.00    +0.000 OA
ATOM     21  H   UNL     1       5.754  -0.510  -0.677  0.00  0.00    +0.000 HD
ENDBRANCH  19  20
ENDBRANCH  14  19
ENDBRANCH   1  16
BRANCH   5  22
ATOM     22  N   UNL     1       3.203  -5.767  -3.629  0.00  0.00    +0.000 N 
ATOM     23  H   UNL     1       3.840  -5.976  -2.870  0.00  0.00    +0.000 HD
ATOM     24  H   UNL     1       2.905  -6.475  -4.280  0.00  0.00    +0.000 HD
ENDBRANCH   5  22
TORSDOF 5
