REMARK  Name = Clofibrate
REMARK  8 active torsions:
REMARK  status: ('A' for Active; 'I' for Inactive)
REMARK    1  A    between atoms: C_1  and  C_2
REMARK    2  A    between atoms: C_2  and  O_3
REMARK    3  A    between atoms: O_3  and  C_4
REMARK    4  A    between atoms: C_4  and  C_6
REMARK    5  A    between atoms: C_6  and  C_7
REMARK    6  A    between atoms: C_6  and  C_8
REMARK    7  A    between atoms: C_6  and  O_9
REMARK    8  A    between atoms: O_9  and  C_10
REMARK                            x       y       z     vdW  Elec       q    Type
REMARK                         _______ _______ _______ _____ _____    ______ ____
ROOT
ATOM      1  C   UNL     1       4.952   2.167   2.142  0.00  0.00    +0.000 C 
ATOM      2  C   UNL     1       4.445   3.559   1.739  0.00  0.00    +0.000 C 
ATOM      3  C   UNL     1       4.311   1.723   3.461  0.00  0.00    +0.000 C 
ENDROOT
BRANCH   1   4
ATOM      4  C   UNL     1       4.503   1.141   1.050  0.00  0.00    +0.000 C 
ATOM      5  O   UNL     1       5.266   0.469   0.359  0.00  0.00    +0.000 OA
BRANCH   4   6
ATOM      6  O   UNL     1       3.133   1.054   0.952  0.00  0.00    +0.000 OA
BRANCH   6   8
ATOM      7  C   UNL     1       1.128   0.079  -0.019  0.00  0.00    +0.000 C 
ATOM      8  C   UNL     1       2.650   0.094  -0.010  0.00  0.00    +0.000 C 
ENDBRANCH   6   8
ENDBRANCH   4   6
ENDBRANCH   1   4
BRANCH   1   9
ATOM      9  O   UNL     1       6.410   2.140   2.205  0.00  0.00    +0.000 OA
BRANCH   9  10
ATOM     10  C   UNL     1       7.064   3.049   2.998  0.00  0.00    +0.000 A 
ATOM     11  C   UNL     1       6.852   3.168   4.371  0.00  0.00    +0.000 A 
ATOM     12  C   UNL     1       7.464   4.177   5.115  0.00  0.00    +0.000 A 
ATOM     13  C   UNL     1       8.399   5.002   4.507  0.00  0.00    +0.000 A 
ATOM     14 CL   UNL     1       9.170   6.228   5.434  0.00  0.00    +0.000 Cl
ATOM     15  C   UNL     1       8.726   4.813   3.166  0.00  0.00    +0.000 A 
ATOM     16  C   UNL     1       8.055   3.838   2.410  0.00  0.00    +0.000 A 
ENDBRANCH   9  10
ENDBRANCH   1   9
TORSDOF 5
