REMARK  Name = Clofazimine
REMARK  6 active torsions:
REMARK  status: ('A' for Active; 'I' for Inactive)
REMARK    1  A    between atoms: C_1  and  C_2
REMARK    2  A    between atoms: C_2  and  C_3
REMARK    3  A    between atoms: C_2  and  N_4
REMARK    4  A    between atoms: N_8  and  C_9
REMARK    5  A    between atoms: C_25  and  N_26
REMARK    6  A    between atoms: N_26  and  C_27
REMARK                            x       y       z     vdW  Elec       q    Type
REMARK                         _______ _______ _______ _____ _____    ______ ____
ROOT
ATOM      1  N   UNL     1       2.906   0.693  -1.030  0.00  0.00    +0.000 NA
ATOM      2  C   UNL     1       4.135   1.063  -1.172  0.00  0.00    +0.000 A 
ATOM      3  C   UNL     1       5.171   0.492  -0.332  0.00  0.00    +0.000 A 
ATOM      4  C   UNL     1       6.486   0.498  -0.578  0.00  0.00    +0.000 A 
ATOM      5  N   UNL     1       7.404  -0.250   0.157  0.00  0.00    +0.000 N 
ATOM      6  C   UNL     1       8.791  -0.028  -0.106  0.00  0.00    +0.000 A 
ATOM      7  C   UNL     1       9.175   0.904  -1.095  0.00  0.00    +0.000 A 
ATOM      8  C   UNL     1      10.540   1.117  -1.311  0.00  0.00    +0.000 A 
ATOM      9  C   UNL     1      11.507   0.420  -0.573  0.00  0.00    +0.000 A 
ATOM     10  C   UNL     1      11.126  -0.509   0.384  0.00  0.00    +0.000 A 
ATOM     11  C   UNL     1       9.779  -0.742   0.599  0.00  0.00    +0.000 A 
ATOM     12  N   UNL     1       8.238   1.622  -1.884  0.00  0.00    +0.000 NA
ATOM     13  C   UNL     1       6.971   1.419  -1.645  0.00  0.00    +0.000 A 
ATOM     14  C   UNL     1       5.926   2.178  -2.411  0.00  0.00    +0.000 A 
ATOM     15  C   UNL     1       4.592   2.070  -2.212  0.00  0.00    +0.000 A 
ENDROOT
BRANCH   5  16
ATOM     16  C   UNL     1       6.957  -1.120   1.207  0.00  0.00    +0.000 A 
ATOM     17  C   UNL     1       7.360  -0.885   2.527  0.00  0.00    +0.000 A 
ATOM     18  C   UNL     1       7.038  -1.790   3.534  0.00  0.00    +0.000 A 
ATOM     19  C   UNL     1       6.158  -2.835   3.268  0.00  0.00    +0.000 A 
ATOM     20 CL   UNL     1       5.771  -3.960   4.507  0.00  0.00    +0.000 Cl
ATOM     21  C   UNL     1       5.619  -2.996   1.996  0.00  0.00    +0.000 A 
ATOM     22  C   UNL     1       6.098  -2.203   0.953  0.00  0.00    +0.000 A 
ENDBRANCH   5  16
BRANCH   1  24
ATOM     23  C   UNL     1       0.931  -0.205   0.062  0.00  0.00    +0.000 C 
ATOM     24  C   UNL     1       2.448  -0.229   0.001  0.00  0.00    +0.000 C 
ATOM     25  C   UNL     1       2.854  -1.639  -0.381  0.00  0.00    +0.000 C 
ENDBRANCH   1  24
BRANCH  15  26
ATOM     26  N   UNL     1       3.633   2.819  -2.908  0.00  0.00    +0.000 N 
ATOM     27  H   UNL     1       3.946   3.286  -3.749  0.00  0.00    +0.000 HD
BRANCH  26  28
ATOM     28  C   UNL     1       2.231   2.738  -2.744  0.00  0.00    +0.000 A 
ATOM     29  C   UNL     1       1.644   3.006  -1.497  0.00  0.00    +0.000 A 
ATOM     30  C   UNL     1       0.323   2.637  -1.228  0.00  0.00    +0.000 A 
ATOM     31  C   UNL     1      -0.448   2.052  -2.225  0.00  0.00    +0.000 A 
ATOM     32 CL   UNL     1      -1.997   1.403  -1.840  0.00  0.00    +0.000 Cl
ATOM     33  C   UNL     1       0.068   1.914  -3.511  0.00  0.00    +0.000 A 
ATOM     34  C   UNL     1       1.415   2.224  -3.762  0.00  0.00    +0.000 A 
ENDBRANCH  26  28
ENDBRANCH  15  26
TORSDOF 4
