REMARK  Name = Clofedanol
REMARK  8 active torsions:
REMARK  status: ('A' for Active; 'I' for Inactive)
REMARK    1  A    between atoms: C_1  and  N_2
REMARK    2  A    between atoms: N_2  and  C_3
REMARK    3  A    between atoms: N_2  and  C_4
REMARK    4  A    between atoms: C_4  and  C_5
REMARK    5  A    between atoms: C_5  and  C_6
REMARK    6  A    between atoms: C_6  and  O_7
REMARK    7  A    between atoms: C_6  and  C_8
REMARK    8  A    between atoms: C_6  and  C_14
REMARK                            x       y       z     vdW  Elec       q    Type
REMARK                         _______ _______ _______ _____ _____    ______ ____
ROOT
ATOM      1  C   UNL     1       4.979   0.911  -2.772  0.00  0.00    +0.000 C 
ENDROOT
BRANCH   1   2
ATOM      2  C   UNL     1       6.524   0.779  -2.690  0.00  0.00    +0.000 A 
ATOM      3  C   UNL     1       7.227   1.039  -3.896  0.00  0.00    +0.000 A 
ATOM      4  C   UNL     1       8.617   0.950  -3.977  0.00  0.00    +0.000 A 
ATOM      5  C   UNL     1       9.354   0.602  -2.858  0.00  0.00    +0.000 A 
ATOM      6  C   UNL     1       8.704   0.348  -1.660  0.00  0.00    +0.000 A 
ATOM      7  C   UNL     1       7.311   0.444  -1.557  0.00  0.00    +0.000 A 
ATOM      8 CL   UNL     1       6.784   0.155   0.072  0.00  0.00    +0.000 Cl
ENDBRANCH   1   2
BRANCH   1   9
ATOM      9  C   UNL     1       4.489   2.321  -3.159  0.00  0.00    +0.000 A 
ATOM     10  C   UNL     1       5.292   3.448  -2.915  0.00  0.00    +0.000 A 
ATOM     11  C   UNL     1       4.793   4.740  -3.088  0.00  0.00    +0.000 A 
ATOM     12  C   UNL     1       3.485   4.929  -3.509  0.00  0.00    +0.000 A 
ATOM     13  C   UNL     1       2.673   3.834  -3.779  0.00  0.00    +0.000 A 
ATOM     14  C   UNL     1       3.181   2.540  -3.634  0.00  0.00    +0.000 A 
ENDBRANCH   1   9
BRANCH   1  15
ATOM     15  O   UNL     1       4.597  -0.029  -3.794  0.00  0.00    +0.000 OA
ATOM     16  H   UNL     1       3.632  -0.070  -3.841  0.00  0.00    +0.000 HD
ENDBRANCH   1  15
BRANCH   1  17
ATOM     17  C   UNL     1       4.311   0.500  -1.456  0.00  0.00    +0.000 C 
BRANCH  17  18
ATOM     18  C   UNL     1       2.798   0.422  -1.371  0.00  0.00    +0.000 C 
BRANCH  18  20
ATOM     19  C   UNL     1       0.896   0.038  -0.001  0.00  0.00    +0.000 C 
ATOM     20  N   UNL     1       2.356   0.002  -0.031  0.00  0.00    +0.000 NA
ATOM     21  C   UNL     1       2.846  -1.329   0.330  0.00  0.00    +0.000 C 
ENDBRANCH  18  20
ENDBRANCH  17  18
ENDBRANCH   1  17
TORSDOF 6
