REMARK  Name = Clomipramine
REMARK  6 active torsions:
REMARK  status: ('A' for Active; 'I' for Inactive)
REMARK    1  A    between atoms: C_1  and  N_2
REMARK    2  A    between atoms: N_2  and  C_3
REMARK    3  A    between atoms: N_2  and  C_4
REMARK    4  A    between atoms: C_4  and  C_5
REMARK    5  A    between atoms: C_5  and  C_6
REMARK    6  A    between atoms: C_6  and  N_7
REMARK                            x       y       z     vdW  Elec       q    Type
REMARK                         _______ _______ _______ _____ _____    ______ ____
ROOT
ATOM      1  N   UNL     1       6.537   2.098   1.650  0.00  0.00    +0.000 N 
ATOM      2  C   UNL     1       7.175   2.638   0.519  0.00  0.00    +0.000 A 
ATOM      3  C   UNL     1       7.255   1.896  -0.668  0.00  0.00    +0.000 A 
ATOM      4  C   UNL     1       7.926   2.387  -1.785  0.00  0.00    +0.000 A 
ATOM      5  C   UNL     1       8.556   3.623  -1.717  0.00  0.00    +0.000 A 
ATOM      6  C   UNL     1       8.516   4.363  -0.535  0.00  0.00    +0.000 A 
ATOM      7  C   UNL     1       7.829   3.872   0.587  0.00  0.00    +0.000 A 
ATOM      8  C   UNL     1       7.844   4.604   1.900  0.00  0.00    +0.000 C 
ATOM      9  C   UNL     1       8.699   3.852   2.924  0.00  0.00    +0.000 C 
ATOM     10  C   UNL     1       8.249   2.479   3.398  0.00  0.00    +0.000 A 
ATOM     11  C   UNL     1       7.201   1.724   2.829  0.00  0.00    +0.000 A 
ATOM     12  C   UNL     1       6.878   0.479   3.407  0.00  0.00    +0.000 A 
ATOM     13  C   UNL     1       7.576  -0.017   4.501  0.00  0.00    +0.000 A 
ATOM     14 CL   UNL     1       7.150  -1.545   5.167  0.00  0.00    +0.000 Cl
ATOM     15  C   UNL     1       8.626   0.708   5.044  0.00  0.00    +0.000 A 
ATOM     16  C   UNL     1       8.958   1.944   4.494  0.00  0.00    +0.000 A 
ENDROOT
BRANCH   1  17
ATOM     17  C   UNL     1       5.061   2.152   1.679  0.00  0.00    +0.000 C 
BRANCH  17  18
ATOM     18  C   UNL     1       4.474   1.058   0.800  0.00  0.00    +0.000 C 
BRANCH  18  19
ATOM     19  C   UNL     1       2.953   1.058   0.762  0.00  0.00    +0.000 C 
BRANCH  19  21
ATOM     20  C   UNL     1       0.987  -0.024  -0.097  0.00  0.00    +0.000 C 
ATOM     21  N   UNL     1       2.450  -0.007  -0.126  0.00  0.00    +0.000 NA
ATOM     22  C   UNL     1       2.906   0.156  -1.511  0.00  0.00    +0.000 C 
ENDBRANCH  19  21
ENDBRANCH  18  19
ENDBRANCH  17  18
ENDBRANCH   1  17
TORSDOF 4
