REMARK  Name = Clomifene
REMARK  11 active torsions:
REMARK  status: ('A' for Active; 'I' for Inactive)
REMARK    1  A    between atoms: C_1  and  C_2
REMARK    2  A    between atoms: C_2  and  N_3
REMARK    3  A    between atoms: N_3  and  C_4
REMARK    4  A    between atoms: N_3  and  C_6
REMARK    5  A    between atoms: C_4  and  C_5
REMARK    6  A    between atoms: C_6  and  C_7
REMARK    7  A    between atoms: C_7  and  O_8
REMARK    8  A    between atoms: O_8  and  C_9
REMARK    9  A    between atoms: C_12  and  C_15
REMARK   10  A    between atoms: C_15  and  C_24
REMARK   11  A    between atoms: C_16  and  C_18
REMARK                            x       y       z     vdW  Elec       q    Type
REMARK                         _______ _______ _______ _____ _____    ______ ____
ROOT
ATOM      1  C   UNL     1       9.423   3.869   6.576  0.00  0.00    +0.000 C 
ATOM      2  C   UNL     1      10.565   4.600   6.327  0.00  0.00    +0.000 C 
ATOM      3 CL   UNL     1      11.564   5.258   7.628  0.00  0.00    +0.000 Cl
ENDROOT
BRANCH   1   7
ATOM      4  C   UNL     1       6.961   2.276   3.351  0.00  0.00    +0.000 A 
ATOM      5  C   UNL     1       8.233   2.751   3.103  0.00  0.00    +0.000 A 
ATOM      6  C   UNL     1       9.071   2.999   4.177  0.00  0.00    +0.000 A 
ATOM      7  C   UNL     1       8.613   3.181   5.481  0.00  0.00    +0.000 A 
ATOM      8  C   UNL     1       7.318   2.690   5.718  0.00  0.00    +0.000 A 
ATOM      9  C   UNL     1       6.531   2.189   4.670  0.00  0.00    +0.000 A 
BRANCH   4  10
ATOM     10  O   UNL     1       6.332   1.833   2.228  0.00  0.00    +0.000 OA
BRANCH  10  11
ATOM     11  C   UNL     1       4.923   1.741   2.344  0.00  0.00    +0.000 C 
BRANCH  11  12
ATOM     12  C   UNL     1       4.369   0.881   1.206  0.00  0.00    +0.000 C 
BRANCH  12  13
ATOM     13  N   UNL     1       2.881   0.803   1.210  0.00  0.00    +0.000 NA
BRANCH  13  15
ATOM     14  C   UNL     1       0.970   0.052  -0.275  0.00  0.00    +0.000 C 
ATOM     15  C   UNL     1       2.464   0.043   0.016  0.00  0.00    +0.000 C 
ENDBRANCH  13  15
BRANCH  13  16
ATOM     16  C   UNL     1       2.408   0.229   2.488  0.00  0.00    +0.000 C 
ATOM     17  C   UNL     1       0.913   0.294   2.757  0.00  0.00    +0.000 C 
ENDBRANCH  13  16
ENDBRANCH  12  13
ENDBRANCH  11  12
ENDBRANCH  10  11
ENDBRANCH   4  10
ENDBRANCH   1   7
BRANCH   2  18
ATOM     18  C   UNL     1      11.158   4.931   5.002  0.00  0.00    +0.000 A 
ATOM     19  C   UNL     1      12.483   4.579   4.688  0.00  0.00    +0.000 A 
ATOM     20  C   UNL     1      12.977   4.753   3.392  0.00  0.00    +0.000 A 
ATOM     21  C   UNL     1      12.122   5.158   2.369  0.00  0.00    +0.000 A 
ATOM     22  C   UNL     1      10.809   5.512   2.663  0.00  0.00    +0.000 A 
ATOM     23  C   UNL     1      10.364   5.498   3.987  0.00  0.00    +0.000 A 
ENDBRANCH   2  18
BRANCH   1  24
ATOM     24  C   UNL     1       8.957   3.805   8.008  0.00  0.00    +0.000 A 
ATOM     25  C   UNL     1       8.674   4.961   8.759  0.00  0.00    +0.000 A 
ATOM     26  C   UNL     1       8.353   4.870  10.116  0.00  0.00    +0.000 A 
ATOM     27  C   UNL     1       8.192   3.619  10.708  0.00  0.00    +0.000 A 
ATOM     28  C   UNL     1       8.380   2.464   9.954  0.00  0.00    +0.000 A 
ATOM     29  C   UNL     1       8.783   2.556   8.621  0.00  0.00    +0.000 A 
ENDBRANCH   1  24
TORSDOF 9
