REMARK  Name = Clonazepam
REMARK  2 active torsions:
REMARK  status: ('A' for Active; 'I' for Inactive)
REMARK    1  A    between atoms: N_2  and  C_4
REMARK    2  A    between atoms: C_13  and  C_14
REMARK                            x       y       z     vdW  Elec       q    Type
REMARK                         _______ _______ _______ _____ _____    ______ ____
ROOT
ATOM      1  C   UNL     1       3.083  -0.838   0.874  0.00  0.00    +0.000 A 
ATOM      2  C   UNL     1       2.688  -2.139   1.197  0.00  0.00    +0.000 A 
ATOM      3  C   UNL     1       3.480  -2.897   2.073  0.00  0.00    +0.000 A 
ATOM      4  C   UNL     1       4.667  -2.350   2.599  0.00  0.00    +0.000 A 
ATOM      5  N   UNL     1       5.545  -3.042   3.445  0.00  0.00    +0.000 N 
ATOM      6  C   UNL     1       5.196  -3.936   4.422  0.00  0.00    +0.000 C 
ATOM      7  O   UNL     1       6.072  -4.398   5.160  0.00  0.00    +0.000 OA
ATOM      8  C   UNL     1       3.717  -4.202   4.631  0.00  0.00    +0.000 C 
ATOM      9  N   UNL     1       3.165  -4.905   3.478  0.00  0.00    +0.000 NA
ATOM     10  C   UNL     1       3.085  -4.307   2.338  0.00  0.00    +0.000 C 
ATOM     11  C   UNL     1       5.042  -1.044   2.255  0.00  0.00    +0.000 A 
ATOM     12  C   UNL     1       4.241  -0.274   1.413  0.00  0.00    +0.000 A 
ATOM     13  H   UNL     1       6.522  -2.775   3.477  0.00  0.00    +0.000 HD
ENDROOT
BRANCH  10  14
ATOM     14  C   UNL     1       2.566  -5.134   1.214  0.00  0.00    +0.000 A 
ATOM     15  C   UNL     1       1.280  -5.674   1.351  0.00  0.00    +0.000 A 
ATOM     16  C   UNL     1       0.858  -6.683   0.487  0.00  0.00    +0.000 A 
ATOM     17  C   UNL     1       1.670  -7.073  -0.577  0.00  0.00    +0.000 A 
ATOM     18  C   UNL     1       2.894  -6.437  -0.794  0.00  0.00    +0.000 A 
ATOM     19  C   UNL     1       3.372  -5.504   0.130  0.00  0.00    +0.000 A 
ATOM     20 CL   UNL     1       4.978  -4.911  -0.088  0.00  0.00    +0.000 Cl
ENDBRANCH  10  14
BRANCH   1  22
ATOM     21  O   UNL     1       1.064  -0.170  -0.015  0.00  0.00    +0.000 OA
ATOM     22  N   UNL     1       2.296  -0.062  -0.076  0.00  0.00    +0.000 N 
ATOM     23  O   UNL     1       2.918   0.644  -0.879  0.00  0.00    +0.000 OA
ENDBRANCH   1  22
TORSDOF 2
