REMARK  Name = Clonidine
REMARK  1 active torsions:
REMARK  status: ('A' for Active; 'I' for Inactive)
REMARK    1  A    between atoms: C_8  and  N_9
REMARK                            x       y       z     vdW  Elec       q    Type
REMARK                         _______ _______ _______ _____ _____    ______ ____
ROOT
ATOM      1 CL   UNL     1      -2.920   0.372  -0.181  0.00  0.00    +0.000 Cl
ATOM      2  C   UNL     1      -1.283  -0.138  -0.020  0.00  0.00    +0.000 A 
ATOM      3  C   UNL     1      -1.174  -1.538  -0.016  0.00  0.00    +0.000 A 
ATOM      4  C   UNL     1       0.060  -2.162   0.005  0.00  0.00    +0.000 A 
ATOM      5  C   UNL     1       1.205  -1.381   0.014  0.00  0.00    +0.000 A 
ATOM      6  C   UNL     1       1.107   0.023   0.040  0.00  0.00    +0.000 A 
ATOM      7 CL   UNL     1       2.603   0.901   0.045  0.00  0.00    +0.000 Cl
ATOM      8  C   UNL     1      -0.146   0.699   0.037  0.00  0.00    +0.000 A 
ENDROOT
BRANCH   8   9
ATOM      9  N   UNL     1      -0.157   2.125   0.222  0.00  0.00    +0.000 N 
ATOM     10  C   UNL     1      -1.247   2.933   0.065  0.00  0.00    +0.000 C 
ATOM     11  N   UNL     1      -1.478   3.728  -0.939  0.00  0.00    +0.000 NA
ATOM     12  C   UNL     1      -2.799   4.356  -0.593  0.00  0.00    +0.000 C 
ATOM     13  C   UNL     1      -3.367   3.528   0.560  0.00  0.00    +0.000 C 
ATOM     14  N   UNL     1      -2.142   2.974   1.095  0.00  0.00    +0.000 N 
ATOM     15  H   UNL     1       0.660   2.518  -0.242  0.00  0.00    +0.000 HD
ATOM     16  H   UNL     1      -2.199   2.155   1.681  0.00  0.00    +0.000 HD
ENDBRANCH   8   9
TORSDOF 1
