REMARK  Name = Clopidogrel
REMARK  5 active torsions:
REMARK  status: ('A' for Active; 'I' for Inactive)
REMARK    1  A    between atoms: C_2  and  N_3
REMARK    2  A    between atoms: C_2  and  C_12
REMARK    3  A    between atoms: C_2  and  C_16
REMARK    4  A    between atoms: C_12  and  O_14
REMARK    5  A    between atoms: O_14  and  C_15
REMARK                            x       y       z     vdW  Elec       q    Type
REMARK                         _______ _______ _______ _____ _____    ______ ____
ROOT
ATOM      1  C   UNL     1       2.121   0.010   0.021  0.00  0.00    +0.000 C 
ENDROOT
BRANCH   1   2
ATOM      2  N   UNL     1       2.599  -0.382  -1.393  0.00  0.00    +0.000 NA
ATOM      3  C   UNL     1       3.190  -1.739  -1.539  0.00  0.00    +0.000 C 
ATOM      4  C   UNL     1       3.393  -2.179  -2.999  0.00  0.00    +0.000 C 
ATOM      5  C   UNL     1       4.103  -1.097  -3.708  0.00  0.00    +0.000 A 
ATOM      6  C   UNL     1       4.174   0.185  -3.216  0.00  0.00    +0.000 A 
ATOM      7  C   UNL     1       3.581   0.602  -1.911  0.00  0.00    +0.000 C 
ATOM      8  C   UNL     1       4.926   1.026  -4.079  0.00  0.00    +0.000 A 
ATOM      9  C   UNL     1       5.397   0.341  -5.176  0.00  0.00    +0.000 A 
ATOM     10  S   UNL     1       4.914  -1.303  -5.176  0.00  0.00    +0.000 S 
ENDBRANCH   1   2
BRANCH   1  11
ATOM     11  C   UNL     1       2.478  -1.023   1.157  0.00  0.00    +0.000 A 
ATOM     12  C   UNL     1       1.929  -2.335   0.992  0.00  0.00    +0.000 A 
ATOM     13  C   UNL     1       2.331  -3.439   1.755  0.00  0.00    +0.000 A 
ATOM     14  C   UNL     1       3.156  -3.248   2.841  0.00  0.00    +0.000 A 
ATOM     15  C   UNL     1       3.598  -1.974   3.121  0.00  0.00    +0.000 A 
ATOM     16  C   UNL     1       3.296  -0.873   2.305  0.00  0.00    +0.000 A 
ATOM     17 CL   UNL     1       4.038   0.508   3.030  0.00  0.00    +0.000 Cl
ENDBRANCH   1  11
BRANCH   1  18
ATOM     18  C   UNL     1       2.465   1.504   0.335  0.00  0.00    +0.000 C 
ATOM     19  O   UNL     1       3.366   1.858   1.087  0.00  0.00    +0.000 OA
BRANCH  18  20
ATOM     20  O   UNL     1       1.864   2.475  -0.417  0.00  0.00    +0.000 OA
ATOM     21  C   UNL     1       2.495   3.747  -0.122  0.00  0.00    +0.000 C 
ENDBRANCH  18  20
ENDBRANCH   1  18
TORSDOF 4
