REMARK  Name = Clorazepic acid
REMARK  3 active torsions:
REMARK  status: ('A' for Active; 'I' for Inactive)
REMARK    1  A    between atoms: O_1  and  C_2
REMARK    2  A    between atoms: C_2  and  CA_4
REMARK    3  A    between atoms: C_6  and  C_7
REMARK                            x       y       z     vdW  Elec       q    Type
REMARK                         _______ _______ _______ _____ _____    ______ ____
ROOT
ATOM      1  CA  UNL     1       3.219   1.354   0.100  0.00  0.00    +0.000 C 
ATOM      2  N   UNL     1       4.643   1.027   0.259  0.00  0.00    +0.000 NA
ATOM      3  C   UNL     1       5.573   1.910   0.223  0.00  0.00    +0.000 C 
ATOM      4  C   UNL     1       5.364   3.362   0.021  0.00  0.00    +0.000 A 
ATOM      5  C   UNL     1       4.309   4.053   0.633  0.00  0.00    +0.000 A 
ATOM      6  N   UNL     1       3.334   3.450   1.442  0.00  0.00    +0.000 N 
ATOM      7  C   UNL     1       2.765   2.210   1.273  0.00  0.00    +0.000 C 
ATOM      8  O   UNL     1       1.798   1.917   1.980  0.00  0.00    +0.000 OA
ATOM      9  C   UNL     1       4.211   5.441   0.461  0.00  0.00    +0.000 A 
ATOM     10  C   UNL     1       5.129   6.124  -0.342  0.00  0.00    +0.000 A 
ATOM     11  C   UNL     1       6.178   5.431  -0.936  0.00  0.00    +0.000 A 
ATOM     12 CL   UNL     1       7.326   6.270  -1.901  0.00  0.00    +0.000 Cl
ATOM     13  C   UNL     1       6.306   4.059  -0.753  0.00  0.00    +0.000 A 
ATOM     14  H   UNL     1       2.857   4.017   2.135  0.00  0.00    +0.000 HD
ENDROOT
BRANCH   3  15
ATOM     15  C   UNL     1       6.963   1.415   0.428  0.00  0.00    +0.000 A 
ATOM     16  C   UNL     1       7.476   0.431  -0.422  0.00  0.00    +0.000 A 
ATOM     17  C   UNL     1       8.704  -0.162  -0.126  0.00  0.00    +0.000 A 
ATOM     18  C   UNL     1       9.454   0.291   0.960  0.00  0.00    +0.000 A 
ATOM     19  C   UNL     1       8.987   1.348   1.743  0.00  0.00    +0.000 A 
ATOM     20  C   UNL     1       7.718   1.880   1.509  0.00  0.00    +0.000 A 
ENDBRANCH   3  15
BRANCH   1  21
ATOM     21  C   UNL     1       2.448   0.024  -0.010  0.00  0.00    +0.000 C 
ATOM     22  OXT UNL     1       2.975  -1.081  -0.133  0.00  0.00    +0.000 OA
BRANCH  21  23
ATOM     23  O   UNL     1       1.096   0.130  -0.082  0.00  0.00    +0.000 OA
ATOM     24  H   UNL     1       0.731   1.003   0.161  0.00  0.00    +0.000 HD
ENDBRANCH  21  23
ENDBRANCH   1  21
TORSDOF 3
