REMARK  Name = Clotrimazole
REMARK  4 active torsions:
REMARK  status: ('A' for Active; 'I' for Inactive)
REMARK    1  A    between atoms: C_7  and  C_8
REMARK    2  A    between atoms: C_8  and  N_9
REMARK    3  A    between atoms: C_8  and  C_14
REMARK    4  A    between atoms: C_8  and  C_20
REMARK                            x       y       z     vdW  Elec       q    Type
REMARK                         _______ _______ _______ _____ _____    ______ ____
ROOT
ATOM      1  C   UNL     1      -0.457   2.502  -0.014  0.00  0.00    +0.000 C 
ENDROOT
BRANCH   1   8
ATOM      2 CL   UNL     1      -1.937  -0.601  -0.572  0.00  0.00    +0.000 Cl
ATOM      3  C   UNL     1      -0.312  -0.202  -0.114  0.00  0.00    +0.000 A 
ATOM      4  C   UNL     1       0.466  -1.368  -0.021  0.00  0.00    +0.000 A 
ATOM      5  C   UNL     1       1.846  -1.310   0.050  0.00  0.00    +0.000 A 
ATOM      6  C   UNL     1       2.467  -0.078   0.023  0.00  0.00    +0.000 A 
ATOM      7  C   UNL     1       1.696   1.086  -0.020  0.00  0.00    +0.000 A 
ATOM      8  C   UNL     1       0.276   1.087  -0.006  0.00  0.00    +0.000 A 
ENDBRANCH   1   8
BRANCH   1   9
ATOM      9  C   UNL     1      -0.007   3.253  -1.326  0.00  0.00    +0.000 A 
ATOM     10  C   UNL     1       0.541   4.551  -1.348  0.00  0.00    +0.000 A 
ATOM     11  C   UNL     1       0.826   5.197  -2.551  0.00  0.00    +0.000 A 
ATOM     12  C   UNL     1       0.574   4.563  -3.762  0.00  0.00    +0.000 A 
ATOM     13  C   UNL     1       0.041   3.279  -3.775  0.00  0.00    +0.000 A 
ATOM     14  C   UNL     1      -0.219   2.622  -2.574  0.00  0.00    +0.000 A 
ENDBRANCH   1   9
BRANCH   1  15
ATOM     15  C   UNL     1      -2.020   2.359   0.031  0.00  0.00    +0.000 A 
ATOM     16  C   UNL     1      -2.877   2.825  -0.985  0.00  0.00    +0.000 A 
ATOM     17  C   UNL     1      -4.254   2.622  -0.918  0.00  0.00    +0.000 A 
ATOM     18  C   UNL     1      -4.805   1.922   0.149  0.00  0.00    +0.000 A 
ATOM     19  C   UNL     1      -3.991   1.467   1.180  0.00  0.00    +0.000 A 
ATOM     20  C   UNL     1      -2.620   1.704   1.136  0.00  0.00    +0.000 A 
ENDBRANCH   1  15
BRANCH   1  21
ATOM     21  N   UNL     1      -0.058   3.328   1.208  0.00  0.00    +0.000 N 
ATOM     22  C   UNL     1       1.203   3.747   1.595  0.00  0.00    +0.000 A 
ATOM     23  C   UNL     1       1.027   4.630   2.637  0.00  0.00    +0.000 A 
ATOM     24  N   UNL     1      -0.286   4.756   2.939  0.00  0.00    +0.000 NA
ATOM     25  C   UNL     1      -0.916   4.000   2.065  0.00  0.00    +0.000 A 
ENDBRANCH   1  21
TORSDOF 4
