REMARK  Name = Clothiapine
REMARK  1 active torsions:
REMARK  status: ('A' for Active; 'I' for Inactive)
REMARK    1  A    between atoms: C_1  and  N_2
REMARK                            x       y       z     vdW  Elec       q    Type
REMARK                         _______ _______ _______ _____ _____    ______ ____
ROOT
ATOM      1  C   UNL     1       2.436   0.004   0.059  0.00  0.00    +0.000 C 
ATOM      2  N   UNL     1       1.021   0.002  -0.295  0.00  0.00    +0.000 NA
ATOM      3  C   UNL     1       0.330   1.207   0.221  0.00  0.00    +0.000 C 
ATOM      4  C   UNL     1      -1.173   1.241  -0.181  0.00  0.00    +0.000 C 
ATOM      5  N   UNL     1      -1.825   0.007   0.270  0.00  0.00    +0.000 N 
ATOM      6  C   UNL     1      -1.150  -1.226  -0.168  0.00  0.00    +0.000 C 
ATOM      7  C   UNL     1       0.338  -1.194   0.246  0.00  0.00    +0.000 C 
ATOM      8  C   UNL     1      -3.116  -0.015   0.801  0.00  0.00    +0.000 C 
ATOM      9  N   UNL     1      -4.096   0.591   0.186  0.00  0.00    +0.000 NA
ATOM     10  C   UNL     1      -5.450   0.645   0.631  0.00  0.00    +0.000 A 
ATOM     11  C   UNL     1      -6.161   1.840   0.445  0.00  0.00    +0.000 A 
ATOM     12  C   UNL     1      -7.499   1.976   0.855  0.00  0.00    +0.000 A 
ATOM     13  C   UNL     1      -8.152   0.924   1.488  0.00  0.00    +0.000 A 
ATOM     14  C   UNL     1      -7.489  -0.284   1.641  0.00  0.00    +0.000 A 
ATOM     15  C   UNL     1      -6.178  -0.438   1.157  0.00  0.00    +0.000 A 
ATOM     16  S   UNL     1      -5.483  -2.068   1.269  0.00  0.00    +0.000 S 
ATOM     17  C   UNL     1      -4.245  -1.613   2.444  0.00  0.00    +0.000 A 
ATOM     18  C   UNL     1      -3.213  -0.726   2.132  0.00  0.00    +0.000 A 
ATOM     19  C   UNL     1      -2.186  -0.520   3.066  0.00  0.00    +0.000 A 
ATOM     20  C   UNL     1      -2.232  -1.153   4.307  0.00  0.00    +0.000 A 
ATOM     21 CL   UNL     1      -0.937  -0.952   5.419  0.00  0.00    +0.000 Cl
ATOM     22  C   UNL     1      -3.313  -1.957   4.650  0.00  0.00    +0.000 A 
ATOM     23  C   UNL     1      -4.324  -2.179   3.720  0.00  0.00    +0.000 A 
ENDROOT
TORSDOF 0
