REMARK  Name = Clotiazepam
REMARK  4 active torsions:
REMARK  status: ('A' for Active; 'I' for Inactive)
REMARK    1  A    between atoms: C_1  and  C_2
REMARK    2  A    between atoms: C_2  and  C_3
REMARK    3  A    between atoms: N_8  and  C_9
REMARK    4  A    between atoms: C_14  and  C_15
REMARK                            x       y       z     vdW  Elec       q    Type
REMARK                         _______ _______ _______ _____ _____    ______ ____
ROOT
ATOM      1  C   UNL     1       3.055  -1.240  -0.414  0.00  0.00    +0.000 A 
ATOM      2  C   UNL     1       3.764  -1.599  -1.529  0.00  0.00    +0.000 A 
ATOM      3  C   UNL     1       3.970  -3.030  -1.646  0.00  0.00    +0.000 A 
ATOM      4  C   UNL     1       3.371  -3.660  -0.572  0.00  0.00    +0.000 A 
ATOM      5  S   UNL     1       2.699  -2.578   0.546  0.00  0.00    +0.000 S 
ATOM      6  N   UNL     1       3.181  -4.996  -0.276  0.00  0.00    +0.000 N 
ATOM      7  C   UNL     1       2.891  -5.531   1.048  0.00  0.00    +0.000 C 
ATOM      8  C   UNL     1       3.097  -5.837  -1.380  0.00  0.00    +0.000 C 
ATOM      9  O   UNL     1       2.134  -6.550  -1.621  0.00  0.00    +0.000 OA
ATOM     10  C   UNL     1       4.427  -5.981  -2.089  0.00  0.00    +0.000 C 
ATOM     11  N   UNL     1       4.852  -4.906  -2.972  0.00  0.00    +0.000 NA
ATOM     12  C   UNL     1       4.736  -3.652  -2.728  0.00  0.00    +0.000 C 
ENDROOT
BRANCH  12  13
ATOM     13  C   UNL     1       5.481  -2.716  -3.612  0.00  0.00    +0.000 A 
ATOM     14  C   UNL     1       5.096  -2.611  -4.953  0.00  0.00    +0.000 A 
ATOM     15  C   UNL     1       5.660  -1.613  -5.750  0.00  0.00    +0.000 A 
ATOM     16  C   UNL     1       6.586  -0.719  -5.208  0.00  0.00    +0.000 A 
ATOM     17  C   UNL     1       6.995  -0.847  -3.880  0.00  0.00    +0.000 A 
ATOM     18  C   UNL     1       6.476  -1.870  -3.089  0.00  0.00    +0.000 A 
ATOM     19 CL   UNL     1       7.078  -2.004  -1.470  0.00  0.00    +0.000 Cl
ENDBRANCH  12  13
BRANCH   1  21
ATOM     20  C   UNL     1       1.048   0.111  -0.010  0.00  0.00    +0.000 C 
ATOM     21  C   UNL     1       2.571   0.098   0.006  0.00  0.00    +0.000 C 
ENDBRANCH   1  21
TORSDOF 2
