REMARK  Name = Cloxacillin
REMARK  8 active torsions:
REMARK  status: ('A' for Active; 'I' for Inactive)
REMARK    1  A    between atoms: C_4  and  C_5
REMARK    2  A    between atoms: C_4  and  C_6
REMARK    3  A    between atoms: CA_7  and  C_28
REMARK    4  A    between atoms: CA_11  and  N_12
REMARK    5  A    between atoms: C_13  and  C_15
REMARK    6  A    between atoms: C_16  and  C_17
REMARK    7  A    between atoms: C_20  and  C_21
REMARK    8  A    between atoms: C_28  and  O_29
REMARK                            x       y       z     vdW  Elec       q    Type
REMARK                         _______ _______ _______ _____ _____    ______ ____
ROOT
ATOM      1  N   UNL     1       3.411   1.776  -1.366  0.00  0.00    +0.000 N 
ATOM      2  C   UNL     1       4.008   3.016  -1.490  0.00  0.00    +0.000 C 
ATOM      3  O   UNL     1       4.027   3.817  -0.561  0.00  0.00    +0.000 OA
ATOM      4  H   UNL     1       3.500   1.098  -2.115  0.00  0.00    +0.000 HD
ENDROOT
BRANCH   1  14
ATOM      5  C   UNL     1       2.116   0.001   0.014  0.00  0.00    +0.000 C 
ATOM      6  S   UNL     1       2.548  -1.257  -1.238  0.00  0.00    +0.000 S 
ATOM      7  C   UNL     1       2.895  -2.515   0.108  0.00  0.00    +0.000 C 
ATOM      8  C   UNL     1       3.835  -3.559  -0.501  0.00  0.00    +0.000 C 
ATOM      9  C   UNL     1       1.521  -3.106   0.476  0.00  0.00    +0.000 C 
ATOM     10  CA  UNL     1       3.581  -1.684   1.218  0.00  0.00    +0.000 C 
ATOM     11  N   UNL     1       2.962  -0.340   1.172  0.00  0.00    +0.000 N 
ATOM     12  C   UNL     1       3.729   0.794   1.046  0.00  0.00    +0.000 C 
ATOM     13  O   UNL     1       4.801   1.080   1.537  0.00  0.00    +0.000 OA
ATOM     14  CA  UNL     1       2.798   1.377  -0.059  0.00  0.00    +0.000 C 
BRANCH  10  15
ATOM     15  C   UNL     1       3.620  -2.237   2.665  0.00  0.00    +0.000 C 
ATOM     16  OXT UNL     1       4.067  -1.592   3.606  0.00  0.00    +0.000 OA
BRANCH  15  17
ATOM     17  O   UNL     1       3.174  -3.486   2.907  0.00  0.00    +0.000 OA
ATOM     18  H   UNL     1       3.014  -4.113   2.185  0.00  0.00    +0.000 HD
ENDBRANCH  15  17
ENDBRANCH  10  15
ENDBRANCH   1  14
BRANCH   2  19
ATOM     19  C   UNL     1       4.620   3.329  -2.764  0.00  0.00    +0.000 A 
ATOM     20  C   UNL     1       4.137   3.116  -4.034  0.00  0.00    +0.000 A 
ATOM     21  C   UNL     1       2.915   2.512  -4.592  0.00  0.00    +0.000 C 
ATOM     22  O   UNL     1       5.002   3.648  -4.940  0.00  0.00    +0.000 OA
ATOM     23  N   UNL     1       6.078   4.215  -4.282  0.00  0.00    +0.000 NA
ATOM     24  C   UNL     1       5.862   4.003  -2.975  0.00  0.00    +0.000 A 
BRANCH  24  25
ATOM     25  C   UNL     1       6.839   4.377  -1.958  0.00  0.00    +0.000 A 
ATOM     26  C   UNL     1       7.219   5.721  -1.805  0.00  0.00    +0.000 A 
ATOM     27  C   UNL     1       8.101   6.092  -0.783  0.00  0.00    +0.000 A 
ATOM     28  C   UNL     1       8.602   5.131   0.093  0.00  0.00    +0.000 A 
ATOM     29  C   UNL     1       8.241   3.794  -0.059  0.00  0.00    +0.000 A 
ATOM     30  C   UNL     1       7.378   3.413  -1.087  0.00  0.00    +0.000 A 
ATOM     31 CL   UNL     1       7.054   1.715  -1.249  0.00  0.00    +0.000 Cl
ENDBRANCH  24  25
ENDBRANCH   2  19
TORSDOF 5
