REMARK  Name = Clozapine
REMARK  1 active torsions:
REMARK  status: ('A' for Active; 'I' for Inactive)
REMARK    1  A    between atoms: C_1  and  N_2
REMARK                            x       y       z     vdW  Elec       q    Type
REMARK                         _______ _______ _______ _____ _____    ______ ____
ROOT
ATOM      1  C   UNL     1       2.459  -0.021   0.061  0.00  0.00    +0.000 C 
ATOM      2  N   UNL     1       1.045  -0.019  -0.296  0.00  0.00    +0.000 NA
ATOM      3  C   UNL     1       0.385   1.184   0.241  0.00  0.00    +0.000 C 
ATOM      4  C   UNL     1      -1.098   1.252  -0.154  0.00  0.00    +0.000 C 
ATOM      5  N   UNL     1      -1.818   0.043   0.223  0.00  0.00    +0.000 N 
ATOM      6  C   UNL     1      -1.148  -1.216  -0.149  0.00  0.00    +0.000 C 
ATOM      7  C   UNL     1       0.343  -1.199   0.262  0.00  0.00    +0.000 C 
ATOM      8  C   UNL     1      -3.088   0.020   0.807  0.00  0.00    +0.000 C 
ATOM      9  N   UNL     1      -3.193  -0.631   1.926  0.00  0.00    +0.000 NA
ATOM     10  C   UNL     1      -4.407  -0.853   2.615  0.00  0.00    +0.000 A 
ATOM     11  C   UNL     1      -4.381  -0.789   4.010  0.00  0.00    +0.000 A 
ATOM     12  C   UNL     1      -5.495  -1.169   4.759  0.00  0.00    +0.000 A 
ATOM     13 CL   UNL     1      -5.435  -1.105   6.478  0.00  0.00    +0.000 Cl
ATOM     14  C   UNL     1      -6.652  -1.616   4.126  0.00  0.00    +0.000 A 
ATOM     15  C   UNL     1      -6.696  -1.673   2.731  0.00  0.00    +0.000 A 
ATOM     16  C   UNL     1      -5.571  -1.314   1.966  0.00  0.00    +0.000 A 
ATOM     17  N   UNL     1      -5.667  -1.255   0.560  0.00  0.00    +0.000 N 
ATOM     18  C   UNL     1      -5.432  -0.043  -0.117  0.00  0.00    +0.000 A 
ATOM     19  C   UNL     1      -6.475   0.551  -0.853  0.00  0.00    +0.000 A 
ATOM     20  C   UNL     1      -6.331   1.825  -1.411  0.00  0.00    +0.000 A 
ATOM     21  C   UNL     1      -5.151   2.529  -1.225  0.00  0.00    +0.000 A 
ATOM     22  C   UNL     1      -4.119   1.957  -0.482  0.00  0.00    +0.000 A 
ATOM     23  C   UNL     1      -4.242   0.680   0.079  0.00  0.00    +0.000 A 
ATOM     24  H   UNL     1      -6.253  -1.940   0.109  0.00  0.00    +0.000 HD
ENDROOT
TORSDOF 0
