REMARK  Name = Cobalt chloride
REMARK  0 active torsions:
REMARK  status: ('A' for Active; 'I' for Inactive)
REMARK                            x       y       z     vdW  Elec       q    Type
REMARK                         _______ _______ _______ _____ _____    ______ ____
ROOT
ATOM      1 CL   UNL     1       0.905  -0.024   0.021  0.00  0.00    +0.000 Cl
ENDROOT
TORSDOF 0
REMARK  Name = Cobalt chloride
REMARK  0 active torsions:
REMARK  status: ('A' for Active; 'I' for Inactive)
REMARK                            x       y       z     vdW  Elec       q    Type
REMARK                         _______ _______ _______ _____ _____    ______ ____
ROOT
ATOM      1 CL   UNL     1       1.067   0.044   0.060  0.00  0.00    +0.000 Cl
ENDROOT
TORSDOF 0
REMARK  Name = Cobalt chloride
REMARK  0 active torsions:
REMARK  status: ('A' for Active; 'I' for Inactive)
REMARK                            x       y       z     vdW  Elec       q    Type
REMARK                         _______ _______ _______ _____ _____    ______ ____
ROOT
ATOM      1 CO   UNL     1       1.075   0.042   0.051  0.00  0.00    +0.000 Co
ENDROOT
TORSDOF 0
