REMARK  Name = Cobimetinib
REMARK  5 active torsions:
REMARK  status: ('A' for Active; 'I' for Inactive)
REMARK    1  A    between atoms: O_1  and  C_2
REMARK    2  A    between atoms: C_2  and  C_25
REMARK    3  A    between atoms: C_6  and  C_8
REMARK    4  A    between atoms: C_9  and  N_10
REMARK    5  A    between atoms: N_10  and  C_11
REMARK                            x       y       z     vdW  Elec       q    Type
REMARK                         _______ _______ _______ _____ _____    ______ ____
ROOT
ATOM      1  C   UNL     1       2.891  -1.365  -1.838  0.00  0.00    +0.000 A 
ATOM      2  C   UNL     1       2.054  -2.231  -2.573  0.00  0.00    +0.000 A 
ATOM      3  C   UNL     1       2.645  -3.400  -3.111  0.00  0.00    +0.000 A 
ATOM      4  F   UNL     1       1.938  -4.249  -3.875  0.00  0.00    +0.000 F 
ATOM      5  C   UNL     1       3.985  -3.704  -2.930  0.00  0.00    +0.000 A 
ATOM      6  F   UNL     1       4.488  -4.830  -3.456  0.00  0.00    +0.000 F 
ATOM      7  C   UNL     1       4.809  -2.835  -2.240  0.00  0.00    +0.000 A 
ATOM      8  C   UNL     1       4.270  -1.653  -1.714  0.00  0.00    +0.000 A 
ENDROOT
BRANCH   1  13
ATOM      9  C   UNL     1      -0.555   0.015   0.451  0.00  0.00    +0.000 C 
ATOM     10  C   UNL     1       0.605   1.036   0.202  0.00  0.00    +0.000 C 
ATOM     11  N   UNL     1       1.288  -0.072  -0.470  0.00  0.00    +0.000 N 
ATOM     12  C   UNL     1       0.556  -1.080   0.286  0.00  0.00    +0.000 C 
ATOM     13  C   UNL     1       2.380  -0.070  -1.304  0.00  0.00    +0.000 C 
ATOM     14  O   UNL     1       2.932   0.971  -1.676  0.00  0.00    +0.000 OA
BRANCH   9  15
ATOM     15  C   UNL     1      -1.254   0.097   1.834  0.00  0.00    +0.000 C 
ATOM     16  C   UNL     1      -2.163  -1.142   2.002  0.00  0.00    +0.000 C 
ATOM     17  C   UNL     1      -3.004  -1.083   3.272  0.00  0.00    +0.000 C 
ATOM     18  C   UNL     1      -3.757   0.239   3.356  0.00  0.00    +0.000 C 
ATOM     19  C   UNL     1      -2.806   1.419   3.182  0.00  0.00    +0.000 C 
ATOM     20  N   UNL     1      -2.069   1.327   1.926  0.00  0.00    +0.000 NA
ATOM     21  H   UNL     1      -1.495   2.157   1.797  0.00  0.00    +0.000 HD
ENDBRANCH   9  15
BRANCH   9  22
ATOM     22  O   UNL     1      -1.589  -0.008  -0.585  0.00  0.00    +0.000 OA
ATOM     23  H   UNL     1      -1.121   0.033  -1.428  0.00  0.00    +0.000 HD
ENDBRANCH   9  22
ENDBRANCH   1  13
BRANCH   2  24
ATOM     24  N   UNL     1       0.691  -1.920  -2.800  0.00  0.00    +0.000 N 
ATOM     25  H   UNL     1       0.365  -1.015  -2.495  0.00  0.00    +0.000 HD
BRANCH  24  26
ATOM     26  C   UNL     1      -0.273  -2.764  -3.375  0.00  0.00    +0.000 A 
ATOM     27  C   UNL     1      -0.500  -4.056  -2.872  0.00  0.00    +0.000 A 
ATOM     28  F   UNL     1       0.074  -4.429  -1.716  0.00  0.00    +0.000 F 
ATOM     29  C   UNL     1      -1.225  -4.996  -3.588  0.00  0.00    +0.000 A 
ATOM     30  C   UNL     1      -1.678  -4.660  -4.858  0.00  0.00    +0.000 A 
ATOM     31  I   UNL     1      -2.508  -6.127  -6.071  0.00  0.00    +0.000 I 
ATOM     32  C   UNL     1      -1.537  -3.356  -5.341  0.00  0.00    +0.000 A 
ATOM     33  C   UNL     1      -0.897  -2.386  -4.564  0.00  0.00    +0.000 A 
ENDBRANCH  24  26
ENDBRANCH   2  24
TORSDOF 5
