REMARK  Name = Cocaine
REMARK  7 active torsions:
REMARK  status: ('A' for Active; 'I' for Inactive)
REMARK    1  A    between atoms: C_7  and  C_19
REMARK    2  A    between atoms: C_8  and  O_10
REMARK    3  A    between atoms: O_10  and  C_11
REMARK    4  A    between atoms: C_11  and  C_13
REMARK    5  A    between atoms: C_19  and  O_21
REMARK    6  A    between atoms: O_21  and  C_22
REMARK    7  A    between atoms: N_23  and  C_24
REMARK                            x       y       z     vdW  Elec       q    Type
REMARK                         _______ _______ _______ _____ _____    ______ ____
ROOT
ATOM      1  C   UNL     1       2.050  -0.054  -0.034  0.00  0.00    +0.000 C 
ATOM      2  C   UNL     1       2.713   1.248  -0.499  0.00  0.00    +0.000 C 
ATOM      3  C   UNL     1       4.068   1.259   0.232  0.00  0.00    +0.000 C 
ATOM      4  C   UNL     1       4.103  -0.067   1.040  0.00  0.00    +0.000 C 
ATOM      5  C   UNL     1       4.697  -1.249   0.220  0.00  0.00    +0.000 C 
ATOM      6  C   UNL     1       3.945  -1.367  -1.120  0.00  0.00    +0.000 C 
ATOM      7  C   UNL     1       2.423  -1.227  -0.949  0.00  0.00    +0.000 C 
ATOM      8  N   UNL     1       2.657  -0.188   1.288  0.00  0.00    +0.000 NA
ATOM      9  C   UNL     1       2.212  -1.350   2.035  0.00  0.00    +0.000 C 
ENDROOT
BRANCH   5  10
ATOM     10  C   UNL     1       4.679  -2.577   0.964  0.00  0.00    +0.000 C 
ATOM     11  O   UNL     1       4.235  -3.628   0.519  0.00  0.00    +0.000 OA
BRANCH  10  12
ATOM     12  O   UNL     1       5.176  -2.463   2.228  0.00  0.00    +0.000 OA
ATOM     13  C   UNL     1       5.034  -3.680   2.970  0.00  0.00    +0.000 C 
ENDBRANCH  10  12
ENDBRANCH   5  10
BRANCH   6  14
ATOM     14  O   UNL     1       4.355  -2.558  -1.848  0.00  0.00    +0.000 OA
BRANCH  14  15
ATOM     15  C   UNL     1       3.807  -3.010  -3.004  0.00  0.00    +0.000 C 
ATOM     16  O   UNL     1       3.913  -4.176  -3.377  0.00  0.00    +0.000 OA
BRANCH  15  17
ATOM     17  C   UNL     1       3.131  -2.011  -3.857  0.00  0.00    +0.000 A 
ATOM     18  C   UNL     1       1.908  -2.294  -4.473  0.00  0.00    +0.000 A 
ATOM     19  C   UNL     1       1.300  -1.307  -5.254  0.00  0.00    +0.000 A 
ATOM     20  C   UNL     1       1.845  -0.021  -5.315  0.00  0.00    +0.000 A 
ATOM     21  C   UNL     1       3.052   0.260  -4.687  0.00  0.00    +0.000 A 
ATOM     22  C   UNL     1       3.727  -0.758  -4.031  0.00  0.00    +0.000 A 
ENDBRANCH  15  17
ENDBRANCH  14  15
ENDBRANCH   6  14
TORSDOF 5
