REMARK  Name = Cocarboxylase
REMARK  12 active torsions:
REMARK  status: ('A' for Active; 'I' for Inactive)
REMARK    1  A    between atoms: C_1  and  C_2
REMARK    2  A    between atoms: C_3  and  C_4
REMARK    3  A    between atoms: C_4  and  C_5
REMARK    4  A    between atoms: C_5  and  O_6
REMARK    5  A    between atoms: O_6  and  P_7
REMARK    6  A    between atoms: P_7  and  O_8
REMARK    7  A    between atoms: P_7  and  O_10
REMARK    8  A    between atoms: O_10  and  P_11
REMARK    9  A    between atoms: P_11  and  O_12
REMARK   10  A    between atoms: N_17  and  C_18
REMARK   11  A    between atoms: C_18  and  C_19
REMARK   12  A    between atoms: C_22  and  C_23
REMARK                            x       y       z     vdW  Elec       q    Type
REMARK                         _______ _______ _______ _____ _____    ______ ____
ROOT
ATOM      1  C   UNL     1      -5.570  -9.146   4.196  0.00  0.00    +0.000 C 
ATOM      2  C   UNL     1      -5.099  -9.107   5.609  0.00  0.00    +0.000 A 
ATOM      3  C   UNL     1      -4.583  -8.020   6.318  0.00  0.00    +0.000 A 
ATOM      4  S   UNL     1      -4.216  -8.472   7.926  0.00  0.00    +0.000 S 
ATOM      5  C   UNL     1      -4.668 -10.089   7.628  0.00  0.00    +0.000 A 
ATOM      6  N   UNL     1      -5.065 -10.286   6.374  0.00  0.00    +0.000 N 
ENDROOT
BRANCH   3   7
ATOM      7  C   UNL     1      -4.325  -6.586   5.894  0.00  0.00    +0.000 C 
BRANCH   7   8
ATOM      8  C   UNL     1      -4.677  -6.453   4.446  0.00  0.00    +0.000 C 
BRANCH   8   9
ATOM      9  O   UNL     1      -4.604  -5.231   3.796  0.00  0.00    +0.000 OA
BRANCH   9  10
ATOM     10  P   UNL     1      -5.087  -5.431   2.250  0.00  0.00    +0.000 P 
ATOM     11  O   UNL     1      -5.627  -6.797   1.947  0.00  0.00    +0.000 OA
BRANCH  10  12
ATOM     12  O   UNL     1      -6.285  -4.370   2.193  0.00  0.00    +0.000 OA
ATOM     13  H   UNL     1      -6.985  -4.758   1.633  0.00  0.00    +0.000 HD
ENDBRANCH  10  12
BRANCH  10  14
ATOM     14  O   UNL     1      -3.861  -4.875   1.445  0.00  0.00    +0.000 OA
BRANCH  14  15
ATOM     15  P   UNL     1      -3.492  -5.441   0.010  0.00  0.00    +0.000 P 
ATOM     16  O   UNL     1      -4.550  -4.972  -0.931  0.00  0.00    +0.000 OA
ATOM     17  O   UNL     1      -3.003  -6.866   0.089  0.00  0.00    +0.000 OA
BRANCH  15  18
ATOM     18  O   UNL     1      -2.227  -4.492  -0.275  0.00  0.00    +0.000 OA
ATOM     19  H   UNL     1      -2.580  -3.820  -0.884  0.00  0.00    +0.000 HD
ENDBRANCH  15  18
ENDBRANCH  14  15
ENDBRANCH  10  14
ENDBRANCH   9  10
ENDBRANCH   8   9
ENDBRANCH   7   8
ENDBRANCH   3   7
BRANCH   6  20
ATOM     20  C   UNL     1      -5.419 -11.690   5.977  0.00  0.00    +0.000 C 
BRANCH  20  21
ATOM     21  C   UNL     1      -5.745 -11.928   4.541  0.00  0.00    +0.000 A 
ATOM     22  C   UNL     1      -7.057 -12.125   4.139  0.00  0.00    +0.000 A 
ATOM     23  N   UNL     1      -7.464 -12.059   2.863  0.00  0.00    +0.000 NA
ATOM     24  C   UNL     1      -6.517 -11.826   1.939  0.00  0.00    +0.000 A 
ATOM     25  C   UNL     1      -6.944 -11.729   0.504  0.00  0.00    +0.000 C 
ATOM     26  N   UNL     1      -5.206 -11.695   2.231  0.00  0.00    +0.000 NA
ATOM     27  C   UNL     1      -4.829 -11.761   3.516  0.00  0.00    +0.000 A 
ATOM     28  N   UNL     1      -3.479 -11.501   3.769  0.00  0.00    +0.000 N 
ATOM     29  H   UNL     1      -3.101 -11.107   2.895  0.00  0.00    +0.000 HD
ATOM     30  H   UNL     1      -3.239 -10.879   4.527  0.00  0.00    +0.000 HD
ENDBRANCH  20  21
ENDBRANCH   6  20
TORSDOF 10
