REMARK  Name = Codeine
REMARK  4 active torsions:
REMARK  status: ('A' for Active; 'I' for Inactive)
REMARK    1  A    between atoms: C_5  and  O_6
REMARK    2  A    between atoms: N_14  and  C_15
REMARK    3  A    between atoms: C_21  and  O_22
REMARK    4  A    between atoms: O_22  and  C_23
REMARK                            x       y       z     vdW  Elec       q    Type
REMARK                         _______ _______ _______ _____ _____    ______ ____
ROOT
ATOM      1  C   UNL     1       2.122  -0.097  -0.017  0.00  0.00    +0.000 C 
ATOM      2  C   UNL     1       2.473   0.854  -1.152  0.00  0.00    +0.000 C 
ATOM      3  C   UNL     1       2.422   2.183  -0.929  0.00  0.00    +0.000 C 
ATOM      4  C   UNL     1       1.931   2.685   0.400  0.00  0.00    +0.000 C 
ATOM      5  C   UNL     1       2.530   1.912   1.602  0.00  0.00    +0.000 C 
ATOM      6  O   UNL     1       3.821   2.473   1.992  0.00  0.00    +0.000 OA
ATOM      7  C   UNL     1       4.770   1.568   1.591  0.00  0.00    +0.000 A 
ATOM      8  C   UNL     1       4.209   0.390   1.146  0.00  0.00    +0.000 A 
ATOM      9  C   UNL     1       4.931  -0.585   0.472  0.00  0.00    +0.000 A 
ATOM     10  C   UNL     1       4.184  -1.659  -0.284  0.00  0.00    +0.000 C 
ATOM     11  C   UNL     1       2.619  -1.564  -0.187  0.00  0.00    +0.000 C 
ATOM     12  N   UNL     1       2.009  -2.343   0.925  0.00  0.00    +0.000 NA
ATOM     13  C   UNL     1       2.099  -3.784   0.722  0.00  0.00    +0.000 C 
ATOM     14  C   UNL     1       2.535  -1.957   2.239  0.00  0.00    +0.000 C 
ATOM     15  C   UNL     1       2.303  -0.466   2.499  0.00  0.00    +0.000 C 
ATOM     16  C   UNL     1       2.723   0.412   1.308  0.00  0.00    +0.000 C 
ATOM     17  C   UNL     1       6.314  -0.423   0.416  0.00  0.00    +0.000 A 
ATOM     18  C   UNL     1       6.910   0.738   0.955  0.00  0.00    +0.000 A 
ATOM     19  C   UNL     1       6.136   1.769   1.518  0.00  0.00    +0.000 A 
ENDROOT
BRANCH   4  20
ATOM     20  O   UNL     1       2.152   4.085   0.494  0.00  0.00    +0.000 OA
ATOM     21  H   UNL     1       3.114   4.201   0.587  0.00  0.00    +0.000 HD
ENDBRANCH   4  20
BRANCH  19  22
ATOM     22  O   UNL     1       6.823   2.887   1.904  0.00  0.00    +0.000 OA
ATOM     23  C   UNL     1       6.038   3.946   2.448  0.00  0.00    +0.000 C 
ENDBRANCH  19  22
TORSDOF 2
