REMARK  Name = Coenzyme M
REMARK  4 active torsions:
REMARK  status: ('A' for Active; 'I' for Inactive)
REMARK    1  A    between atoms: O_1  and  S_2
REMARK    2  A    between atoms: S_2  and  C_5
REMARK    3  A    between atoms: C_5  and  C_6
REMARK    4  A    between atoms: C_6  and  S_7
REMARK                            x       y       z     vdW  Elec       q    Type
REMARK                         _______ _______ _______ _____ _____    ______ ____
ROOT
ATOM      1  S   UNL     1       2.740  -0.042  -0.110  0.00  0.00    +0.000 S 
ATOM      2  O   UNL     1       3.084  -1.086  -1.049  0.00  0.00    +0.000 OA
ATOM      3  O   UNL     1       3.086   1.339  -0.344  0.00  0.00    +0.000 OA
ENDROOT
BRANCH   1   4
ATOM      4  O   UNL     1       1.136  -0.092   0.064  0.00  0.00    +0.000 OA
ATOM      5  H   UNL     1       0.730   0.150  -0.798  0.00  0.00    +0.000 HD
ENDBRANCH   1   4
BRANCH   1   6
ATOM      6  C   UNL     1       3.231  -0.523   1.549  0.00  0.00    +0.000 C 
BRANCH   6   7
ATOM      7  C   UNL     1       4.749  -0.535   1.613  0.00  0.00    +0.000 C 
BRANCH   7   8
ATOM      8  S   UNL     1       5.369  -1.081   3.237  0.00  0.00    +0.000 S 
ATOM      9  H   UNL     1       4.877  -0.077   3.978  0.00  0.00    +0.000 HD
ENDBRANCH   7   8
ENDBRANCH   6   7
ENDBRANCH   1   6
TORSDOF 4
