REMARK  Name = Colchicine
REMARK  10 active torsions:
REMARK  status: ('A' for Active; 'I' for Inactive)
REMARK    1  A    between atoms: C_1  and  O_2
REMARK    2  A    between atoms: O_2  and  C_3
REMARK    3  A    between atoms: C_7  and  O_8
REMARK    4  A    between atoms: O_8  and  C_9
REMARK    5  A    between atoms: C_10  and  O_11
REMARK    6  A    between atoms: O_11  and  C_12
REMARK    7  A    between atoms: C_16  and  O_17
REMARK    8  A    between atoms: O_17  and  C_18
REMARK    9  A    between atoms: C_23  and  N_26
REMARK   10  A    between atoms: C_27  and  C_28
REMARK                            x       y       z     vdW  Elec       q    Type
REMARK                         _______ _______ _______ _____ _____    ______ ____
ROOT
ATOM      1  C   UNL     1       2.923   0.755   0.953  0.00  0.00    +0.000 A 
ATOM      2  C   UNL     1       3.886   1.581   0.541  0.00  0.00    +0.000 A 
ATOM      3  C   UNL     1       4.310   2.581   1.463  0.00  0.00    +0.000 A 
ATOM      4  C   UNL     1       4.199   2.742   2.840  0.00  0.00    +0.000 A 
ATOM      5  C   UNL     1       3.307   1.743   3.212  0.00  0.00    +0.000 A 
ATOM      6  C   UNL     1       2.665   0.810   2.304  0.00  0.00    +0.000 A 
ATOM      7  C   UNL     1       5.069   3.827   3.810  0.00  0.00    +0.000 A 
ATOM      8  C   UNL     1       4.986   3.419   5.091  0.00  0.00    +0.000 A 
ATOM      9  C   UNL     1       5.841   3.775   6.132  0.00  0.00    +0.000 A 
ATOM     10  C   UNL     1       5.409   4.225   7.336  0.00  0.00    +0.000 A 
ATOM     11  C   UNL     1       6.185   5.717   7.186  0.00  0.00    +0.000 A 
ATOM     12  O   UNL     1       7.013   6.401   7.725  0.00  0.00    +0.000 OA
ATOM     13  C   UNL     1       5.882   6.067   5.367  0.00  0.00    +0.000 A 
ATOM     14  C   UNL     1       5.892   5.178   4.061  0.00  0.00    +0.000 A 
ATOM     15  C   UNL     1       6.546   4.838   2.179  0.00  0.00    +0.000 C 
ATOM     16  C   UNL     1       5.249   4.963   1.085  0.00  0.00    +0.000 C 
ATOM     17  C   UNL     1       5.096   3.541   0.828  0.00  0.00    +0.000 C 
ENDROOT
BRANCH  15  18
ATOM     18  N   UNL     1       7.450   3.391   1.478  0.00  0.00    +0.000 N 
ATOM     19  C   UNL     1       7.366   2.652  -0.056  0.00  0.00    +0.000 C 
ATOM     20  C   UNL     1       6.686   3.400  -1.433  0.00  0.00    +0.000 C 
ATOM     21  O   UNL     1       7.509   1.425  -0.217  0.00  0.00    +0.000 OA
ATOM     22  H   UNL     1       7.426   2.488   2.039  0.00  0.00    +0.000 HD
ENDBRANCH  15  18
BRANCH   1  24
ATOM     23  C   UNL     1       1.005   0.132  -0.275  0.00  0.00    +0.000 C 
ATOM     24  O   UNL     1       2.389  -0.053   0.010  0.00  0.00    +0.000 OA
ENDBRANCH   1  24
BRANCH   5  25
ATOM     25  O   UNL     1       2.984   1.749   4.521  0.00  0.00    +0.000 OA
ATOM     26  C   UNL     1       2.013   0.963   5.118  0.00  0.00    +0.000 C 
ENDBRANCH   5  25
BRANCH   6  27
ATOM     27  O   UNL     1       1.844  -0.042   2.935  0.00  0.00    +0.000 OA
ATOM     28  C   UNL     1       0.948  -0.878   2.266  0.00  0.00    +0.000 C 
ENDBRANCH   6  27
BRANCH  10  29
ATOM     29  O   UNL     1       4.114   3.975   7.855  0.00  0.00    +0.000 OA
ATOM     30  C   UNL     1       3.386   2.974   7.120  0.00  0.00    +0.000 C 
ENDBRANCH  10  29
TORSDOF 5
