REMARK  Name = Colchiceine
REMARK  9 active torsions:
REMARK  status: ('A' for Active; 'I' for Inactive)
REMARK    1  A    between atoms: C_1  and  O_2
REMARK    2  A    between atoms: O_2  and  C_3
REMARK    3  A    between atoms: C_4  and  O_5
REMARK    4  A    between atoms: O_5  and  C_6
REMARK    5  A    between atoms: C_7  and  O_8
REMARK    6  A    between atoms: O_8  and  C_9
REMARK    7  A    between atoms: C_14  and  N_15
REMARK    8  A    between atoms: C_16  and  C_17
REMARK    9  A    between atoms: C_23  and  O_24
REMARK                            x       y       z     vdW  Elec       q    Type
REMARK                         _______ _______ _______ _____ _____    ______ ____
ROOT
ATOM      1  C   UNL     1       3.033   0.678   0.977  0.00  0.00    +0.000 A 
ATOM      2  C   UNL     1       3.904   1.524   1.201  0.00  0.00    +0.000 A 
ATOM      3  C   UNL     1       3.410   1.434   3.125  0.00  0.00    +0.000 A 
ATOM      4  C   UNL     1       1.930   0.277   4.440  0.00  0.00    +0.000 A 
ATOM      5  C   UNL     1       3.074   1.206   3.660  0.00  0.00    +0.000 A 
ATOM      6  C   UNL     1       2.972   1.334   5.022  0.00  0.00    +0.000 C 
ATOM      7  C   UNL     1       1.721   0.315   5.896  0.00  0.00    +0.000 C 
ATOM      8  C   UNL     1       1.982   0.836   6.989  0.00  0.00    +0.000 C 
ATOM      9  C   UNL     1       1.131   0.009   7.231  0.00  0.00    +0.000 A 
ATOM     10  C   UNL     1       0.568  -0.423   8.089  0.00  0.00    +0.000 A 
ATOM     11  C   UNL     1      -0.571  -1.901   6.820  0.00  0.00    +0.000 A 
ATOM     12  O   UNL     1      -1.545  -2.641   6.933  0.00  0.00    +0.000 OA
ATOM     13  C   UNL     1      -0.785  -1.536   8.928  0.00  0.00    +0.000 A 
ATOM     14  C   UNL     1      -1.946  -2.550   9.230  0.00  0.00    +0.000 A 
ATOM     15  C   UNL     1      -0.662  -1.386   8.183  0.00  0.00    +0.000 A 
ATOM     16  C   UNL     1       0.529  -0.669   6.349  0.00  0.00    +0.000 A 
ATOM     17  C   UNL     1       2.557   0.383   2.136  0.00  0.00    +0.000 A 
ENDROOT
BRANCH   8  18
ATOM     18  N   UNL     1       1.303   1.943   6.970  0.00  0.00    +0.000 N 
ATOM     19  C   UNL     1       2.112   3.005   6.867  0.00  0.00    +0.000 C 
ATOM     20  C   UNL     1       3.548   2.932   6.383  0.00  0.00    +0.000 C 
ATOM     21  O   UNL     1       1.711   4.105   7.174  0.00  0.00    +0.000 OA
ATOM     22  H   UNL     1       0.343   1.936   7.314  0.00  0.00    +0.000 HD
ENDBRANCH   8  18
BRANCH   1  24
ATOM     23  C   UNL     1       1.038   0.074   0.070  0.00  0.00    +0.000 C 
ATOM     24  O   UNL     1       2.453   0.036   0.045  0.00  0.00    +0.000 OA
ENDBRANCH   1  24
BRANCH   2  25
ATOM     25  O   UNL     1       4.502   1.778  -0.464  0.00  0.00    +0.000 OA
ATOM     26  C   UNL     1       3.859   0.925  -1.622  0.00  0.00    +0.000 C 
ENDBRANCH   2  25
BRANCH   3  27
ATOM     27  O   UNL     1       4.824   2.607   2.173  0.00  0.00    +0.000 OA
ATOM     28  C   UNL     1       6.250   3.977   2.108  0.00  0.00    +0.000 C 
ENDBRANCH   3  27
BRANCH  13  29
ATOM     29  O   UNL     1      -0.830  -1.187  10.677  0.00  0.00    +0.000 OA
ATOM     30  H   UNL     1      -0.166  -0.549  10.613  0.00  0.00    +0.000 HD
ENDBRANCH  13  29
TORSDOF 5
