REMARK  Name = Conivaptan
REMARK  5 active torsions:
REMARK  status: ('A' for Active; 'I' for Inactive)
REMARK    1  A    between atoms: C_1  and  C_2
REMARK    2  A    between atoms: C_9  and  C_11
REMARK    3  A    between atoms: C_14  and  N_15
REMARK    4  A    between atoms: C_16  and  C_18
REMARK    5  A    between atoms: C_23  and  C_24
REMARK                            x       y       z     vdW  Elec       q    Type
REMARK                         _______ _______ _______ _____ _____    ______ ____
ROOT
ATOM      1  C   UNL     1       8.379  -0.427   3.495  0.00  0.00    +0.000 A 
ATOM      2  C   UNL     1       9.409  -1.299   3.127  0.00  0.00    +0.000 A 
ATOM      3  C   UNL     1       9.647  -2.482   3.839  0.00  0.00    +0.000 A 
ATOM      4  C   UNL     1       9.159  -2.593   5.132  0.00  0.00    +0.000 A 
ATOM      5  C   UNL     1       8.379  -1.534   5.621  0.00  0.00    +0.000 A 
ATOM      6  C   UNL     1       7.911  -0.513   4.793  0.00  0.00    +0.000 A 
ENDROOT
BRANCH   1  15
ATOM      7  C   UNL     1       0.901   0.024   0.002  0.00  0.00    +0.000 C 
ATOM      8  C   UNL     1       2.377  -0.023   0.008  0.00  0.00    +0.000 A 
ATOM      9  N   UNL     1       3.105  -1.058   0.368  0.00  0.00    +0.000 NA
ATOM     10  C   UNL     1       4.400  -0.644   0.259  0.00  0.00    +0.000 A 
ATOM     11  C   UNL     1       4.472   0.637  -0.224  0.00  0.00    +0.000 A 
ATOM     12  C   UNL     1       5.685   1.442  -0.484  0.00  0.00    +0.000 C 
ATOM     13  C   UNL     1       6.492   1.575   0.809  0.00  0.00    +0.000 C 
ATOM     14  N   UNL     1       7.053   0.372   1.446  0.00  0.00    +0.000 N 
ATOM     15  C   UNL     1       7.827   0.651   2.620  0.00  0.00    +0.000 C 
ATOM     16  O   UNL     1       7.981   1.804   3.037  0.00  0.00    +0.000 OA
ATOM     17  C   UNL     1       6.781  -0.954   0.946  0.00  0.00    +0.000 A 
ATOM     18  C   UNL     1       7.859  -1.824   0.839  0.00  0.00    +0.000 A 
ATOM     19  C   UNL     1       7.747  -3.195   0.644  0.00  0.00    +0.000 A 
ATOM     20  C   UNL     1       6.521  -3.711   0.293  0.00  0.00    +0.000 A 
ATOM     21  C   UNL     1       5.443  -2.839   0.163  0.00  0.00    +0.000 A 
ATOM     22  C   UNL     1       5.556  -1.466   0.493  0.00  0.00    +0.000 A 
ATOM     23  N   UNL     1       3.172   1.033  -0.379  0.00  0.00    +0.000 N 
ATOM     24  H   UNL     1       2.846   1.932  -0.708  0.00  0.00    +0.000 HD
ENDBRANCH   1  15
BRANCH   4  25
ATOM     25  N   UNL     1       9.483  -3.741   5.902  0.00  0.00    +0.000 N 
ATOM     26  C   UNL     1       9.203  -3.834   7.261  0.00  0.00    +0.000 C 
ATOM     27  O   UNL     1       8.802  -2.924   7.967  0.00  0.00    +0.000 OA
ATOM     28  H   UNL     1       9.922  -4.520   5.428  0.00  0.00    +0.000 HD
BRANCH  26  29
ATOM     29  C   UNL     1       9.414  -5.134   7.942  0.00  0.00    +0.000 A 
ATOM     30  C   UNL     1      10.641  -5.801   7.847  0.00  0.00    +0.000 A 
ATOM     31  C   UNL     1      10.841  -6.971   8.582  0.00  0.00    +0.000 A 
ATOM     32  C   UNL     1       9.877  -7.399   9.496  0.00  0.00    +0.000 A 
ATOM     33  C   UNL     1       8.696  -6.676   9.665  0.00  0.00    +0.000 A 
ATOM     34  C   UNL     1       8.407  -5.583   8.838  0.00  0.00    +0.000 A 
BRANCH  34  35
ATOM     35  C   UNL     1       7.078  -4.942   8.894  0.00  0.00    +0.000 A 
ATOM     36  C   UNL     1       6.291  -4.858   7.731  0.00  0.00    +0.000 A 
ATOM     37  C   UNL     1       5.162  -4.042   7.689  0.00  0.00    +0.000 A 
ATOM     38  C   UNL     1       4.728  -3.403   8.846  0.00  0.00    +0.000 A 
ATOM     39  C   UNL     1       5.423  -3.582  10.042  0.00  0.00    +0.000 A 
ATOM     40  C   UNL     1       6.618  -4.305  10.055  0.00  0.00    +0.000 A 
ENDBRANCH  34  35
ENDBRANCH  26  29
ENDBRANCH   4  25
TORSDOF 4
