REMARK  Name = Copanlisib
REMARK  8 active torsions:
REMARK  status: ('A' for Active; 'I' for Inactive)
REMARK    1  A    between atoms: C_1  and  O_2
REMARK    2  A    between atoms: O_2  and  C_3
REMARK    3  A    between atoms: C_4  and  O_5
REMARK    4  A    between atoms: O_5  and  C_6
REMARK    5  A    between atoms: C_6  and  C_7
REMARK    6  A    between atoms: C_7  and  C_8
REMARK    7  A    between atoms: C_8  and  N_9
REMARK    8  A    between atoms: C_22  and  C_24
REMARK                            x       y       z     vdW  Elec       q    Type
REMARK                         _______ _______ _______ _____ _____    ______ ____
ROOT
ATOM      1  C   UNL     1       3.045   0.790  -0.886  0.00  0.00    +0.000 A 
ATOM      2  C   UNL     1       2.640   2.158  -0.910  0.00  0.00    +0.000 A 
ATOM      3  C   UNL     1       3.210   3.040  -1.832  0.00  0.00    +0.000 A 
ATOM      4  C   UNL     1       4.215   2.612  -2.691  0.00  0.00    +0.000 A 
ATOM      5  C   UNL     1       4.666   1.293  -2.620  0.00  0.00    +0.000 A 
ATOM      6  C   UNL     1       4.117   0.332  -1.722  0.00  0.00    +0.000 A 
ATOM      7  N   UNL     1       4.623  -1.046  -1.678  0.00  0.00    +0.000 NA
ATOM      8  C   UNL     1       5.594  -1.380  -2.503  0.00  0.00    +0.000 C 
ATOM      9  N   UNL     1       6.085  -2.715  -2.460  0.00  0.00    +0.000 N 
ATOM     10  C   UNL     1       7.106  -3.353  -3.192  0.00  0.00    +0.000 C 
ATOM     11  O   UNL     1       7.748  -2.948  -4.169  0.00  0.00    +0.000 OA
ATOM     12  N   UNL     1       6.114  -0.460  -3.374  0.00  0.00    +0.000 N 
ATOM     13  C   UNL     1       7.144  -0.701  -4.327  0.00  0.00    +0.000 C 
ATOM     14  C   UNL     1       7.319   0.597  -5.053  0.00  0.00    +0.000 C 
ATOM     15  N   UNL     1       6.359   1.554  -4.430  0.00  0.00    +0.000 NA
ATOM     16  C   UNL     1       5.740   0.838  -3.514  0.00  0.00    +0.000 C 
ATOM     17  H   UNL     1       5.634  -3.246  -1.724  0.00  0.00    +0.000 HD
ENDROOT
BRANCH  10  18
ATOM     18  C   UNL     1       7.564  -4.691  -2.938  0.00  0.00    +0.000 A 
ATOM     19  C   UNL     1       8.920  -4.948  -3.085  0.00  0.00    +0.000 A 
ATOM     20  N   UNL     1       9.442  -6.181  -3.144  0.00  0.00    +0.000 NA
ATOM     21  C   UNL     1       8.562  -7.181  -3.101  0.00  0.00    +0.000 A 
ATOM     22  N   UNL     1       9.077  -8.437  -3.095  0.00  0.00    +0.000 N 
ATOM     23  N   UNL     1       7.225  -7.037  -3.052  0.00  0.00    +0.000 NA
ATOM     24  C   UNL     1       6.743  -5.778  -3.002  0.00  0.00    +0.000 A 
ATOM     25  H   UNL     1      10.079  -8.521  -3.087  0.00  0.00    +0.000 HD
ATOM     26  H   UNL     1       8.444  -9.209  -3.004  0.00  0.00    +0.000 HD
ENDBRANCH  10  18
BRANCH   1  28
ATOM     27  C   UNL     1       1.027  -0.104   0.021  0.00  0.00    +0.000 C 
ATOM     28  O   UNL     1       2.463  -0.110  -0.005  0.00  0.00    +0.000 OA
ENDBRANCH   1  28
BRANCH   2  29
ATOM     29  O   UNL     1       1.732   2.581   0.029  0.00  0.00    +0.000 OA
BRANCH  29  30
ATOM     30  C   UNL     1       1.236   3.915  -0.047  0.00  0.00    +0.000 C 
BRANCH  30  31
ATOM     31  C   UNL     1       0.157   4.075   1.012  0.00  0.00    +0.000 C 
BRANCH  31  32
ATOM     32  C   UNL     1      -0.390   5.499   1.000  0.00  0.00    +0.000 C 
BRANCH  32  33
ATOM     33  N   UNL     1      -1.489   5.712   1.961  0.00  0.00    +0.000 NA
ATOM     34  C   UNL     1      -2.587   4.730   1.786  0.00  0.00    +0.000 C 
ATOM     35  C   UNL     1      -3.260   4.862   0.411  0.00  0.00    +0.000 C 
ATOM     36  O   UNL     1      -3.810   6.177   0.237  0.00  0.00    +0.000 OA
ATOM     37  C   UNL     1      -2.804   7.189   0.402  0.00  0.00    +0.000 C 
ATOM     38  C   UNL     1      -2.085   7.058   1.760  0.00  0.00    +0.000 C 
ENDBRANCH  32  33
ENDBRANCH  31  32
ENDBRANCH  30  31
ENDBRANCH  29  30
ENDBRANCH   2  29
TORSDOF 7
