REMARK  Name = Copper gluconate
REMARK  20 active torsions:
REMARK  status: ('A' for Active; 'I' for Inactive)
REMARK    1  A    between atoms: O_2  and  C_3
REMARK    2  A    between atoms: C_3  and  C_4
REMARK    3  A    between atoms: C_4  and  O_5
REMARK    4  A    between atoms: C_4  and  C_6
REMARK    5  A    between atoms: C_6  and  O_7
REMARK    6  A    between atoms: C_6  and  C_8
REMARK    7  A    between atoms: C_8  and  O_9
REMARK    8  A    between atoms: C_8  and  C_10
REMARK    9  A    between atoms: C_10  and  O_11
REMARK   10  A    between atoms: C_10  and  C_12
REMARK   11  A    between atoms: O_15  and  C_16
REMARK   12  A    between atoms: C_16  and  C_17
REMARK   13  A    between atoms: C_17  and  O_18
REMARK   14  A    between atoms: C_17  and  C_19
REMARK   15  A    between atoms: C_19  and  O_20
REMARK   16  A    between atoms: C_19  and  C_21
REMARK   17  A    between atoms: C_21  and  O_22
REMARK   18  A    between atoms: C_21  and  C_23
REMARK   19  A    between atoms: C_23  and  O_24
REMARK   20  A    between atoms: C_23  and  C_25
REMARK                            x       y       z     vdW  Elec       q    Type
REMARK                         _______ _______ _______ _____ _____    ______ ____
ROOT
ATOM      1 CU   UNL     1       1.970   0.520   0.223  0.00  0.00    +0.000 Cu
ENDROOT
TORSDOF 0
REMARK  Name = Copper gluconate
REMARK  20 active torsions:
REMARK  status: ('A' for Active; 'I' for Inactive)
REMARK    1  A    between atoms: O_2  and  C_3
REMARK    2  A    between atoms: C_3  and  C_4
REMARK    3  A    between atoms: C_4  and  O_5
REMARK    4  A    between atoms: C_4  and  C_6
REMARK    5  A    between atoms: C_6  and  O_7
REMARK    6  A    between atoms: C_6  and  C_8
REMARK    7  A    between atoms: C_8  and  O_9
REMARK    8  A    between atoms: C_8  and  C_10
REMARK    9  A    between atoms: C_10  and  O_11
REMARK   10  A    between atoms: C_10  and  C_12
REMARK   11  A    between atoms: O_15  and  C_16
REMARK   12  A    between atoms: C_16  and  C_17
REMARK   13  A    between atoms: C_17  and  O_18
REMARK   14  A    between atoms: C_17  and  C_19
REMARK   15  A    between atoms: C_19  and  O_20
REMARK   16  A    between atoms: C_19  and  C_21
REMARK   17  A    between atoms: C_21  and  O_22
REMARK   18  A    between atoms: C_21  and  C_23
REMARK   19  A    between atoms: C_23  and  O_24
REMARK   20  A    between atoms: C_23  and  C_25
REMARK                            x       y       z     vdW  Elec       q    Type
REMARK                         _______ _______ _______ _____ _____    ______ ____
ROOT
ATOM      1  C   UNL     2       4.481  -2.072   3.252  0.00  0.00    +0.000 C 
ENDROOT
BRANCH   1   2
ATOM      2  O   UNL     2       3.422  -2.354   2.276  0.00  0.00    +0.000 OA
ATOM      3  H   UNL     2       3.916  -2.502   1.452  0.00  0.00    +0.000 HD
ENDBRANCH   1   2
BRANCH   1   4
ATOM      4  C   UNL     2       5.421  -3.318   3.375  0.00  0.00    +0.000 C 
BRANCH   4   5
ATOM      5  O   UNL     2       6.234  -3.324   4.541  0.00  0.00    +0.000 OA
ATOM      6  H   UNL     2       7.067  -2.822   4.445  0.00  0.00    +0.000 HD
ENDBRANCH   4   5
BRANCH   4   7
ATOM      7  C   UNL     2       6.208  -3.661   2.098  0.00  0.00    +0.000 C 
BRANCH   7   8
ATOM      8  O   UNL     2       6.978  -4.843   2.244  0.00  0.00    +0.000 OA
ATOM      9  H   UNL     2       7.690  -4.806   1.581  0.00  0.00    +0.000 HD
ENDBRANCH   7   8
ENDBRANCH   4   7
ENDBRANCH   1   4
BRANCH   1  10
ATOM     10  C   UNL     2       5.042  -0.686   2.839  0.00  0.00    +0.000 C 
BRANCH  10  11
ATOM     11  O   UNL     2       4.530  -0.367   1.469  0.00  0.00    +0.000 OA
ATOM     12  H   UNL     2       5.228  -0.766   0.903  0.00  0.00    +0.000 HD
ENDBRANCH  10  11
BRANCH  10  13
ATOM     13  C   UNL     2       6.554  -0.507   2.903  0.00  0.00    +0.000 C 
BRANCH  13  14
ATOM     14  C   UNL     2       7.067  -0.636   4.355  0.00  0.00    +0.000 C 
ATOM     15  O   UNL     2       6.211  -0.495   5.234  0.00  0.00    +0.000 OA
ATOM     16  O   UNL     2       8.308  -0.937   4.426  0.00  0.00    +0.000 OA
ENDBRANCH  13  14
BRANCH  13  17
ATOM     17  O   UNL     2       6.836   0.798   2.409  0.00  0.00    +0.000 OA
ATOM     18  H   UNL     2       7.067   1.288   3.228  0.00  0.00    +0.000 HD
ENDBRANCH  13  17
ENDBRANCH  10  13
ENDBRANCH   1  10
TORSDOF 10
REMARK  Name = Copper gluconate
REMARK  20 active torsions:
REMARK  status: ('A' for Active; 'I' for Inactive)
REMARK    1  A    between atoms: O_2  and  C_3
REMARK    2  A    between atoms: C_3  and  C_4
REMARK    3  A    between atoms: C_4  and  O_5
REMARK    4  A    between atoms: C_4  and  C_6
REMARK    5  A    between atoms: C_6  and  O_7
REMARK    6  A    between atoms: C_6  and  C_8
REMARK    7  A    between atoms: C_8  and  O_9
REMARK    8  A    between atoms: C_8  and  C_10
REMARK    9  A    between atoms: C_10  and  O_11
REMARK   10  A    between atoms: C_10  and  C_12
REMARK   11  A    between atoms: O_15  and  C_16
REMARK   12  A    between atoms: C_16  and  C_17
REMARK   13  A    between atoms: C_17  and  O_18
REMARK   14  A    between atoms: C_17  and  C_19
REMARK   15  A    between atoms: C_19  and  O_20
REMARK   16  A    between atoms: C_19  and  C_21
REMARK   17  A    between atoms: C_21  and  O_22
REMARK   18  A    between atoms: C_21  and  C_23
REMARK   19  A    between atoms: C_23  and  O_24
REMARK   20  A    between atoms: C_23  and  C_25
REMARK                            x       y       z     vdW  Elec       q    Type
REMARK                         _______ _______ _______ _____ _____    ______ ____
ROOT
ATOM      1  C   UNL     3       4.400   3.811   0.706  0.00  0.00    +0.000 C 
ENDROOT
BRANCH   1   2
ATOM      2  O   UNL     3       3.382   2.993   1.417  0.00  0.00    +0.000 OA
ATOM      3  H   UNL     3       3.934   2.402   1.968  0.00  0.00    +0.000 HD
ENDBRANCH   1   2
BRANCH   1   4
ATOM      4  C   UNL     3       5.418   4.445   1.725  0.00  0.00    +0.000 C 
BRANCH   4   5
ATOM      5  O   UNL     3       6.200   5.486   1.169  0.00  0.00    +0.000 OA
ATOM      6  H   UNL     3       7.043   5.160   0.785  0.00  0.00    +0.000 HD
ENDBRANCH   4   5
BRANCH   4   7
ATOM      7  C   UNL     3       6.259   3.399   2.435  0.00  0.00    +0.000 C 
BRANCH   7   8
ATOM      8  O   UNL     3       7.287   3.890   3.270  0.00  0.00    +0.000 OA
ATOM      9  H   UNL     3       7.991   3.210   3.292  0.00  0.00    +0.000 HD
ENDBRANCH   7   8
ENDBRANCH   4   7
ENDBRANCH   1   4
BRANCH   1  10
ATOM     10  C   UNL     3       4.874   2.901  -0.478  0.00  0.00    +0.000 C 
BRANCH  10  11
ATOM     11  O   UNL     3       4.268   1.537  -0.245  0.00  0.00    +0.000 OA
ATOM     12  H   UNL     3       4.942   1.173   0.383  0.00  0.00    +0.000 HD
ENDBRANCH  10  11
BRANCH  10  13
ATOM     13  C   UNL     3       6.375   2.819  -0.820  0.00  0.00    +0.000 C 
BRANCH  13  14
ATOM     14  C   UNL     3       6.908   4.220  -1.236  0.00  0.00    +0.000 C 
ATOM     15  O   UNL     3       6.040   4.989  -1.724  0.00  0.00    +0.000 OA
ATOM     16  O   UNL     3       8.114   4.430  -0.941  0.00  0.00    +0.000 OA
ENDBRANCH  13  14
BRANCH  13  17
ATOM     17  O   UNL     3       6.533   1.853  -1.890  0.00  0.00    +0.000 OA
ATOM     18  H   UNL     3       6.716   2.398  -2.681  0.00  0.00    +0.000 HD
ENDBRANCH  13  17
ENDBRANCH  10  13
ENDBRANCH   1  10
TORSDOF 10
