REMARK  Name = Cortisone acetate
REMARK  8 active torsions:
REMARK  status: ('A' for Active; 'I' for Inactive)
REMARK    1  A    between atoms: C_5  and  O_6
REMARK    2  A    between atoms: C_5  and  C_7
REMARK    3  A    between atoms: C_7  and  C_9
REMARK    4  A    between atoms: C_9  and  O_10
REMARK    5  A    between atoms: O_10  and  C_11
REMARK    6  A    between atoms: C_11  and  C_12
REMARK    7  A    between atoms: C_14  and  C_15
REMARK    8  A    between atoms: C_31  and  C_32
REMARK                            x       y       z     vdW  Elec       q    Type
REMARK                         _______ _______ _______ _____ _____    ______ ____
ROOT
ATOM      1  C   UNL     1       1.844  -0.048  -0.063  0.00  0.00    +0.000 C 
ATOM      2  C   UNL     1       2.241  -0.071  -1.422  0.00  0.00    +0.000 C 
ATOM      3  C   UNL     1       3.301  -0.421  -0.423  0.00  0.00    +0.000 C 
ATOM      4  C   UNL     1       2.688  -0.951   1.522  0.00  0.00    +0.000 C 
ATOM      5  C   UNL     1       2.785  -1.667   0.334  0.00  0.00    +0.000 C 
ATOM      6  C   UNL     1       2.055  -2.857  -0.153  0.00  0.00    +0.000 C 
ATOM      7  C   UNL     1       4.615  -1.557   0.776  0.00  0.00    +0.000 C 
ATOM      8  C   UNL     1       4.967  -0.067   1.534  0.00  0.00    +0.000 C 
ATOM      9  O   UNL     1       5.632  -0.104   2.570  0.00  0.00    +0.000 OA
ATOM     10  C   UNL     1       4.333   1.378   0.962  0.00  0.00    +0.000 C 
ATOM     11  C   UNL     1       2.601   1.364   0.802  0.00  0.00    +0.000 C 
ATOM     12  C   UNL     1       2.117   2.599   0.073  0.00  0.00    +0.000 C 
ATOM     13  C   UNL     1       2.656   3.859   0.692  0.00  0.00    +0.000 C 
ATOM     14  C   UNL     1       4.139   3.898   0.921  0.00  0.00    +0.000 C 
ATOM     15  C   UNL     1       4.817   5.023   0.655  0.00  0.00    +0.000 C 
ATOM     16  C   UNL     1       6.149   5.070   1.256  0.00  0.00    +0.000 C 
ATOM     17  O   UNL     1       6.387   5.246   2.448  0.00  0.00    +0.000 OA
ATOM     18  C   UNL     1       7.124   4.389   0.440  0.00  0.00    +0.000 C 
ATOM     19  C   UNL     1       6.576   2.918   1.123  0.00  0.00    +0.000 C 
ATOM     20  C   UNL     1       4.869   2.713   1.561  0.00  0.00    +0.000 C 
ATOM     21  C   UNL     1       4.385   2.637   3.034  0.00  0.00    +0.000 C 
ENDROOT
BRANCH   4  22
ATOM     22  O   UNL     1       1.216  -0.942   1.817  0.00  0.00    +0.000 OA
ATOM     23  H   UNL     1       1.008  -1.036   2.757  0.00  0.00    +0.000 HD
ENDBRANCH   4  22
BRANCH   4  24
ATOM     24  C   UNL     1       2.923  -2.399   2.624  0.00  0.00    +0.000 C 
ATOM     25  O   UNL     1       3.437  -3.460   2.226  0.00  0.00    +0.000 OA
BRANCH  24  26
ATOM     26  C   UNL     1       2.357  -2.530   4.160  0.00  0.00    +0.000 C 
BRANCH  26  27
ATOM     27  O   UNL     1       2.839  -3.829   4.764  0.00  0.00    +0.000 OA
BRANCH  27  28
ATOM     28  C   UNL     1       2.660  -4.362   6.005  0.00  0.00    +0.000 C 
ATOM     29  C   UNL     1       1.832  -3.618   7.010  0.00  0.00    +0.000 C 
ATOM     30  O   UNL     1       3.165  -5.440   6.327  0.00  0.00    +0.000 OA
ENDBRANCH  27  28
ENDBRANCH  26  27
ENDBRANCH  24  26
ENDBRANCH   4  24
TORSDOF 5
