REMARK  Name = Creatine
REMARK  4 active torsions:
REMARK  status: ('A' for Active; 'I' for Inactive)
REMARK    1  A    between atoms: C_1  and  N_2
REMARK    2  A    between atoms: N_2  and  C_3
REMARK    3  A    between atoms: C_3  and  C_4
REMARK    4  A    between atoms: C_4  and  O_5
REMARK                            x       y       z     vdW  Elec       q    Type
REMARK                         _______ _______ _______ _____ _____    ______ ____
ROOT
ATOM      1  C   UNL     1       1.026   0.238   0.337  0.00  0.00    +0.000 C 
ATOM      2  N   UNL     1       2.451   0.139   0.198  0.00  0.00    +0.000 N 
ATOM      3  C   UNL     1       3.247   0.799   1.117  0.00  0.00    +0.000 C 
ATOM      4  N   UNL     1       2.604   1.492   2.081  0.00  0.00    +0.000 N 
ATOM      5  N   UNL     1       4.533   0.840   1.174  0.00  0.00    +0.000 NA
ATOM      6  H   UNL     1       1.607   1.560   2.176  0.00  0.00    +0.000 HD
ATOM      7  H   UNL     1       3.167   1.982   2.763  0.00  0.00    +0.000 HD
ATOM      8  H   UNL     1       4.954   0.301   0.424  0.00  0.00    +0.000 HD
ENDROOT
BRANCH   2   9
ATOM      9  C   UNL     1       3.045  -0.659  -0.911  0.00  0.00    +0.000 C 
BRANCH   9  10
ATOM     10  C   UNL     1       2.289  -1.447  -2.008  0.00  0.00    +0.000 C 
ATOM     11  O   UNL     1       2.955  -2.049  -2.846  0.00  0.00    +0.000 OA
BRANCH  10  12
ATOM     12  O   UNL     1       0.962  -1.554  -2.156  0.00  0.00    +0.000 OA
ATOM     13  H   UNL     1       0.214  -1.199  -1.663  0.00  0.00    +0.000 HD
ENDBRANCH  10  12
ENDBRANCH   9  10
ENDBRANCH   2   9
TORSDOF 3
