REMARK  Name = Crizotinib
REMARK  6 active torsions:
REMARK  status: ('A' for Active; 'I' for Inactive)
REMARK    1  A    between atoms: C_1  and  C_2
REMARK    2  A    between atoms: C_2  and  O_3
REMARK    3  A    between atoms: C_2  and  C_22
REMARK    4  A    between atoms: O_3  and  C_4
REMARK    5  A    between atoms: C_6  and  C_11
REMARK    6  A    between atoms: N_13  and  C_16
REMARK                            x       y       z     vdW  Elec       q    Type
REMARK                         _______ _______ _______ _____ _____    ______ ____
ROOT
ATOM      1  C   UNL     1       2.515  -1.891   1.396  0.00  0.00    +0.000 A 
ATOM      2  C   UNL     1       3.566  -2.464   2.112  0.00  0.00    +0.000 A 
ATOM      3  C   UNL     1       3.295  -3.056   3.352  0.00  0.00    +0.000 A 
ATOM      4  C   UNL     1       2.011  -2.941   3.863  0.00  0.00    +0.000 A 
ATOM      5  N   UNL     1       0.975  -2.449   3.169  0.00  0.00    +0.000 NA
ATOM      6  C   UNL     1       1.223  -2.061   1.908  0.00  0.00    +0.000 A 
ATOM      7  N   UNL     1       0.097  -2.064   1.124  0.00  0.00    +0.000 N 
ATOM      8  H   UNL     1      -0.747  -1.868   1.641  0.00  0.00    +0.000 HD
ATOM      9  H   UNL     1       0.162  -1.849   0.147  0.00  0.00    +0.000 HD
ENDROOT
BRANCH   3  10
ATOM     10  C   UNL     1       4.280  -3.754   4.125  0.00  0.00    +0.000 A 
ATOM     11  C   UNL     1       5.441  -3.165   4.550  0.00  0.00    +0.000 A 
ATOM     12  N   UNL     1       6.078  -4.065   5.354  0.00  0.00    +0.000 N 
ATOM     13  N   UNL     1       5.394  -5.224   5.472  0.00  0.00    +0.000 NA
ATOM     14  C   UNL     1       4.301  -5.025   4.727  0.00  0.00    +0.000 A 
BRANCH  12  15
ATOM     15  C   UNL     1       7.348  -3.899   6.064  0.00  0.00    +0.000 C 
ATOM     16  C   UNL     1       7.302  -2.773   7.106  0.00  0.00    +0.000 C 
ATOM     17  C   UNL     1       7.305  -1.396   6.450  0.00  0.00    +0.000 C 
ATOM     18  N   UNL     1       8.416  -1.235   5.508  0.00  0.00    +0.000 NA
ATOM     19  C   UNL     1       8.500  -2.286   4.490  0.00  0.00    +0.000 C 
ATOM     20  C   UNL     1       8.523  -3.683   5.103  0.00  0.00    +0.000 C 
ATOM     21  H   UNL     1       9.288  -1.231   6.038  0.00  0.00    +0.000 HD
ENDBRANCH  12  15
ENDBRANCH   3  10
BRANCH   1  22
ATOM     22  O   UNL     1       2.783  -1.343   0.169  0.00  0.00    +0.000 OA
BRANCH  22  24
ATOM     23  C   UNL     1       0.986   0.337  -0.123  0.00  0.00    +0.000 C 
ATOM     24  C   UNL     1       2.495   0.063  -0.042  0.00  0.00    +0.000 C 
BRANCH  24  25
ATOM     25  C   UNL     1       3.062   0.578  -1.381  0.00  0.00    +0.000 A 
ATOM     26  C   UNL     1       2.987   1.974  -1.663  0.00  0.00    +0.000 A 
ATOM     27 CL   UNL     1       2.524   3.161  -0.479  0.00  0.00    +0.000 Cl
ATOM     28  C   UNL     1       3.267   2.488  -2.935  0.00  0.00    +0.000 A 
ATOM     29  C   UNL     1       3.702   1.643  -3.944  0.00  0.00    +0.000 A 
ATOM     30  C   UNL     1       3.848   0.291  -3.679  0.00  0.00    +0.000 A 
ATOM     31  F   UNL     1       4.286  -0.498  -4.673  0.00  0.00    +0.000 F 
ATOM     32  C   UNL     1       3.524  -0.256  -2.427  0.00  0.00    +0.000 A 
ATOM     33 CL   UNL     1       3.708  -1.975  -2.317  0.00  0.00    +0.000 Cl
ENDBRANCH  24  25
ENDBRANCH  22  24
ENDBRANCH   1  22
TORSDOF 5
