REMARK  Name = Cromoglicic acid
REMARK  11 active torsions:
REMARK  status: ('A' for Active; 'I' for Inactive)
REMARK    1  A    between atoms: O_1  and  C_2
REMARK    2  A    between atoms: C_2  and  C_3
REMARK    3  A    between atoms: C_2  and  C_19
REMARK    4  A    between atoms: C_3  and  O_4
REMARK    5  A    between atoms: O_4  and  C_5
REMARK    6  A    between atoms: C_14  and  C_16
REMARK    7  A    between atoms: C_16  and  O_17
REMARK    8  A    between atoms: C_19  and  O_20
REMARK    9  A    between atoms: O_20  and  C_21
REMARK   10  A    between atoms: C_30  and  C_32
REMARK   11  A    between atoms: C_32  and  O_33
REMARK                            x       y       z     vdW  Elec       q    Type
REMARK                         _______ _______ _______ _____ _____    ______ ____
ROOT
ATOM      1  C   UNL     1       2.343  -0.162  -0.083  0.00  0.00    +0.000 C 
ENDROOT
BRANCH   1   2
ATOM      2  O   UNL     1       0.911  -0.074  -0.061  0.00  0.00    +0.000 OA
ATOM      3  H   UNL     1       0.649  -0.320   0.846  0.00  0.00    +0.000 HD
ENDBRANCH   1   2
BRANCH   1   4
ATOM      4  C   UNL     1       2.740  -1.590   0.243  0.00  0.00    +0.000 C 
BRANCH   4   5
ATOM      5  O   UNL     1       2.374  -1.875   1.602  0.00  0.00    +0.000 OA
BRANCH   5   6
ATOM      6  C   UNL     1       2.839  -3.088   2.036  0.00  0.00    +0.000 A 
ATOM      7  C   UNL     1       1.873  -3.941   2.587  0.00  0.00    +0.000 A 
ATOM      8  C   UNL     1       2.229  -5.218   3.028  0.00  0.00    +0.000 A 
ATOM      9  C   UNL     1       3.554  -5.645   2.928  0.00  0.00    +0.000 A 
ATOM     10  C   UNL     1       4.531  -4.779   2.432  0.00  0.00    +0.000 A 
ATOM     11  C   UNL     1       4.183  -3.488   2.016  0.00  0.00    +0.000 A 
ATOM     12  C   UNL     1       5.296  -2.579   1.668  0.00  0.00    +0.000 A 
ATOM     13  O   UNL     1       5.208  -1.361   1.603  0.00  0.00    +0.000 OA
ATOM     14  C   UNL     1       6.606  -3.185   1.461  0.00  0.00    +0.000 A 
ATOM     15  C   UNL     1       6.812  -4.429   1.902  0.00  0.00    +0.000 A 
ATOM     16  O   UNL     1       5.828  -5.254   2.422  0.00  0.00    +0.000 OA
BRANCH  15  17
ATOM     17  C   UNL     1       8.231  -4.871   1.903  0.00  0.00    +0.000 C 
ATOM     18  O   UNL     1       9.156  -4.177   1.512  0.00  0.00    +0.000 OA
BRANCH  17  19
ATOM     19  O   UNL     1       8.414  -6.107   2.411  0.00  0.00    +0.000 OA
ATOM     20  H   UNL     1       7.597  -6.549   2.709  0.00  0.00    +0.000 HD
ENDBRANCH  17  19
ENDBRANCH  15  17
ENDBRANCH   5   6
ENDBRANCH   4   5
ENDBRANCH   1   4
BRANCH   1  21
ATOM     21  C   UNL     1       2.870   0.171  -1.479  0.00  0.00    +0.000 C 
BRANCH  21  22
ATOM     22  O   UNL     1       4.299   0.324  -1.449  0.00  0.00    +0.000 OA
BRANCH  22  23
ATOM     23  C   UNL     1       4.917   0.703  -2.614  0.00  0.00    +0.000 A 
ATOM     24  C   UNL     1       6.053  -0.059  -2.956  0.00  0.00    +0.000 A 
ATOM     25  C   UNL     1       6.827   0.257  -4.080  0.00  0.00    +0.000 A 
ATOM     26  C   UNL     1       6.483   1.350  -4.872  0.00  0.00    +0.000 A 
ATOM     27  C   UNL     1       5.380   2.136  -4.527  0.00  0.00    +0.000 A 
ATOM     28  C   UNL     1       4.603   1.830  -3.391  0.00  0.00    +0.000 A 
ATOM     29  C   UNL     1       3.571   2.822  -3.030  0.00  0.00    +0.000 A 
ATOM     30  O   UNL     1       3.040   2.931  -1.928  0.00  0.00    +0.000 OA
ATOM     31  C   UNL     1       3.231   3.833  -4.017  0.00  0.00    +0.000 A 
ATOM     32  C   UNL     1       4.061   4.035  -5.043  0.00  0.00    +0.000 A 
ATOM     33  O   UNL     1       5.157   3.241  -5.330  0.00  0.00    +0.000 OA
BRANCH  32  34
ATOM     34  C   UNL     1       3.791   5.266  -5.828  0.00  0.00    +0.000 C 
ATOM     35  O   UNL     1       2.876   6.039  -5.583  0.00  0.00    +0.000 OA
BRANCH  34  36
ATOM     36  O   UNL     1       4.670   5.480  -6.826  0.00  0.00    +0.000 OA
ATOM     37  H   UNL     1       5.365   4.801  -6.901  0.00  0.00    +0.000 HD
ENDBRANCH  34  36
ENDBRANCH  32  34
ENDBRANCH  22  23
ENDBRANCH  21  22
ENDBRANCH   1  21
TORSDOF 11
