REMARK  Name = Cupric sulfate
REMARK  0 active torsions:
REMARK  status: ('A' for Active; 'I' for Inactive)
REMARK                            x       y       z     vdW  Elec       q    Type
REMARK                         _______ _______ _______ _____ _____    ______ ____
ROOT
ATOM      1 CU   UNL     1       0.857  -0.998   0.256  0.00  0.00    +0.000 Cu
ENDROOT
TORSDOF 0
REMARK  Name = Cupric sulfate
REMARK  0 active torsions:
REMARK  status: ('A' for Active; 'I' for Inactive)
REMARK                            x       y       z     vdW  Elec       q    Type
REMARK                         _______ _______ _______ _____ _____    ______ ____
ROOT
ATOM      1  O   UNL     1       1.444   0.707  -0.072  0.00  0.00    +0.000 OA
ATOM      2  S   UNL     1       2.876   0.316   0.003  0.00  0.00    +0.000 S 
ATOM      3  O   UNL     1       3.730   1.124  -0.824  0.00  0.00    +0.000 OA
ATOM      4  O   UNL     1       3.162   0.221   1.418  0.00  0.00    +0.000 OA
ATOM      5  O   UNL     1       2.663  -1.081  -0.448  0.00  0.00    +0.000 OA
ENDROOT
TORSDOF 0
