REMARK  Name = Cupric oxide
REMARK  0 active torsions:
REMARK  status: ('A' for Active; 'I' for Inactive)
REMARK                            x       y       z     vdW  Elec       q    Type
REMARK                         _______ _______ _______ _____ _____    ______ ____
ROOT
ATOM      1  O   HOH     1       0.922   0.060   0.015  0.00  0.00    +0.000 OA
ENDROOT
TORSDOF 0
REMARK  Name = Cupric oxide
REMARK  0 active torsions:
REMARK  status: ('A' for Active; 'I' for Inactive)
REMARK                            x       y       z     vdW  Elec       q    Type
REMARK                         _______ _______ _______ _____ _____    ______ ____
ROOT
ATOM      1 CU   UNL     1       1.049  -0.052   0.070  0.00  0.00    +0.000 Cu
ENDROOT
TORSDOF 0
