REMARK  Name = Cupric Chloride
REMARK  0 active torsions:
REMARK  status: ('A' for Active; 'I' for Inactive)
REMARK                            x       y       z     vdW  Elec       q    Type
REMARK                         _______ _______ _______ _____ _____    ______ ____
ROOT
ATOM      1 CL   UNL     1       1.036   0.093   0.003  0.00  0.00    +0.000 Cl
ATOM      2 CU   UNL     1       3.376   0.093   0.003  0.00  0.00    +0.000 Cu
ATOM      3 CL   UNL     1       5.716   0.093   0.003  0.00  0.00    +0.000 Cl
ENDROOT
TORSDOF 0
