REMARK  Name = Curcumin
REMARK  12 active torsions:
REMARK  status: ('A' for Active; 'I' for Inactive)
REMARK    1  A    between atoms: C_1  and  O_2
REMARK    2  A    between atoms: O_2  and  C_3
REMARK    3  A    between atoms: C_5  and  C_6
REMARK    4  A    between atoms: C_7  and  C_8
REMARK    5  A    between atoms: C_8  and  C_10
REMARK    6  A    between atoms: C_10  and  C_11
REMARK    7  A    between atoms: C_11  and  C_13
REMARK    8  A    between atoms: C_14  and  C_15
REMARK    9  A    between atoms: C_17  and  O_18
REMARK   10  A    between atoms: O_18  and  C_19
REMARK   11  A    between atoms: C_20  and  O_21
REMARK   12  A    between atoms: C_26  and  O_27
REMARK                            x       y       z     vdW  Elec       q    Type
REMARK                         _______ _______ _______ _____ _____    ______ ____
ROOT
ATOM      1  C   UNL     1       9.895   4.368  -0.177  0.00  0.00    +0.000 C 
ENDROOT
BRANCH   1   2
ATOM      2  C   UNL     1       9.029   3.108  -0.148  0.00  0.00    +0.000 C 
ATOM      3  O   UNL     1       9.476   1.962  -0.138  0.00  0.00    +0.000 OA
BRANCH   2   5
ATOM      4  C   UNL     1       6.736   2.207  -0.103  0.00  0.00    +0.000 C 
ATOM      5  C   UNL     1       7.547   3.284  -0.128  0.00  0.00    +0.000 C 
BRANCH   4   8
ATOM      6  C   UNL     1       3.080   1.113  -0.043  0.00  0.00    +0.000 A 
ATOM      7  C   UNL     1       4.491   1.073  -0.060  0.00  0.00    +0.000 A 
ATOM      8  C   UNL     1       5.258   2.254  -0.082  0.00  0.00    +0.000 A 
ATOM      9  C   UNL     1       4.575   3.474  -0.084  0.00  0.00    +0.000 A 
ATOM     10  C   UNL     1       3.184   3.531  -0.055  0.00  0.00    +0.000 A 
ATOM     11  C   UNL     1       2.438   2.358  -0.032  0.00  0.00    +0.000 A 
BRANCH   6  13
ATOM     12  C   UNL     1       1.055  -0.143  -0.054  0.00  0.00    +0.000 C 
ATOM     13  O   UNL     1       2.479  -0.122  -0.040  0.00  0.00    +0.000 OA
ENDBRANCH   6  13
BRANCH  11  14
ATOM     14  O   UNL     1       1.076   2.472   0.002  0.00  0.00    +0.000 OA
ATOM     15  H   UNL     1       0.817   3.405   0.027  0.00  0.00    +0.000 HD
ENDBRANCH  11  14
ENDBRANCH   4   8
ENDBRANCH   2   5
ENDBRANCH   1   2
BRANCH   1  16
ATOM     16  C   UNL     1      11.394   4.087  -0.196  0.00  0.00    +0.000 C 
ATOM     17  O   UNL     1      11.875   2.955  -0.185  0.00  0.00    +0.000 OA
BRANCH  16  18
ATOM     18  C   UNL     1      12.334   5.248  -0.224  0.00  0.00    +0.000 C 
ATOM     19  C   UNL     1      13.658   5.000  -0.244  0.00  0.00    +0.000 C 
BRANCH  19  20
ATOM     20  C   UNL     1      14.686   6.047  -0.273  0.00  0.00    +0.000 A 
ATOM     21  C   UNL     1      14.603   7.156   0.580  0.00  0.00    +0.000 A 
ATOM     22  C   UNL     1      15.575   8.160   0.549  0.00  0.00    +0.000 A 
ATOM     23  C   UNL     1      16.640   8.037  -0.348  0.00  0.00    +0.000 A 
ATOM     24  C   UNL     1      16.757   6.929  -1.179  0.00  0.00    +0.000 A 
ATOM     25  C   UNL     1      15.786   5.926  -1.131  0.00  0.00    +0.000 A 
BRANCH  22  26
ATOM     26  O   UNL     1      15.574   9.284   1.337  0.00  0.00    +0.000 OA
ATOM     27  C   UNL     1      14.501   9.387   2.270  0.00  0.00    +0.000 C 
ENDBRANCH  22  26
BRANCH  23  28
ATOM     28  O   UNL     1      17.604   9.004  -0.440  0.00  0.00    +0.000 OA
ATOM     29  H   UNL     1      17.356   9.692   0.207  0.00  0.00    +0.000 HD
ENDBRANCH  23  28
ENDBRANCH  19  20
ENDBRANCH  16  18
ENDBRANCH   1  16
TORSDOF 10
