REMARK  Name = Cyclobenzaprine
REMARK  5 active torsions:
REMARK  status: ('A' for Active; 'I' for Inactive)
REMARK    1  A    between atoms: C_1  and  N_2
REMARK    2  A    between atoms: N_2  and  C_3
REMARK    3  A    between atoms: N_2  and  C_4
REMARK    4  A    between atoms: C_4  and  C_5
REMARK    5  A    between atoms: C_5  and  C_6
REMARK                            x       y       z     vdW  Elec       q    Type
REMARK                         _______ _______ _______ _____ _____    ______ ____
ROOT
ATOM      1  C   UNL     1       5.025  -2.513  -1.416  0.00  0.00    +0.000 C 
ATOM      2  C   UNL     1       6.119  -3.171  -0.968  0.00  0.00    +0.000 C 
ATOM      3  C   UNL     1       6.498  -4.436  -1.625  0.00  0.00    +0.000 A 
ATOM      4  C   UNL     1       6.735  -4.432  -3.010  0.00  0.00    +0.000 A 
ATOM      5  C   UNL     1       7.135  -5.593  -3.663  0.00  0.00    +0.000 A 
ATOM      6  C   UNL     1       7.307  -6.766  -2.936  0.00  0.00    +0.000 A 
ATOM      7  C   UNL     1       7.080  -6.778  -1.556  0.00  0.00    +0.000 A 
ATOM      8  C   UNL     1       6.690  -5.613  -0.876  0.00  0.00    +0.000 A 
ATOM      9  C   UNL     1       6.435  -5.720   0.574  0.00  0.00    +0.000 C 
ATOM     10  C   UNL     1       6.593  -4.775   1.521  0.00  0.00    +0.000 C 
ATOM     11  C   UNL     1       7.100  -3.403   1.341  0.00  0.00    +0.000 A 
ATOM     12  C   UNL     1       7.786  -2.810   2.414  0.00  0.00    +0.000 A 
ATOM     13  C   UNL     1       8.319  -1.522   2.308  0.00  0.00    +0.000 A 
ATOM     14  C   UNL     1       8.184  -0.808   1.124  0.00  0.00    +0.000 A 
ATOM     15  C   UNL     1       7.489  -1.372   0.060  0.00  0.00    +0.000 A 
ATOM     16  C   UNL     1       6.908  -2.649   0.171  0.00  0.00    +0.000 A 
ENDROOT
BRANCH   1  17
ATOM     17  C   UNL     1       4.469  -1.259  -0.801  0.00  0.00    +0.000 C 
BRANCH  17  18
ATOM     18  C   UNL     1       2.939  -1.237  -0.734  0.00  0.00    +0.000 C 
BRANCH  18  20
ATOM     19  C   UNL     1       0.972  -0.013  -0.097  0.00  0.00    +0.000 C 
ATOM     20  N   UNL     1       2.436  -0.018  -0.068  0.00  0.00    +0.000 NA
ATOM     21  C   UNL     1       2.893   0.070   1.323  0.00  0.00    +0.000 C 
ENDBRANCH  18  20
ENDBRANCH  17  18
ENDBRANCH   1  17
TORSDOF 3
