REMARK  Name = Cyclopenthiazide
REMARK  4 active torsions:
REMARK  status: ('A' for Active; 'I' for Inactive)
REMARK    1  A    between atoms: N_1  and  S_2
REMARK    2  A    between atoms: S_2  and  C_5
REMARK    3  A    between atoms: C_10  and  C_11
REMARK    4  A    between atoms: C_11  and  C_12
REMARK                            x       y       z     vdW  Elec       q    Type
REMARK                         _______ _______ _______ _____ _____    ______ ____
ROOT
ATOM      1  C   UNL     1       3.267  -1.503  -0.435  0.00  0.00    +0.000 A 
ATOM      2  C   UNL     1       4.344  -1.661  -1.333  0.00  0.00    +0.000 A 
ATOM      3  C   UNL     1       4.714  -2.944  -1.734  0.00  0.00    +0.000 A 
ATOM      4  C   UNL     1       3.992  -4.049  -1.317  0.00  0.00    +0.000 A 
ATOM      5  N   UNL     1       4.257  -5.310  -1.780  0.00  0.00    +0.000 N 
ATOM      6  C   UNL     1       5.517  -5.683  -2.351  0.00  0.00    +0.000 C 
ATOM      7  N   UNL     1       5.725  -4.788  -3.454  0.00  0.00    +0.000 NA
ATOM      8  S   UNL     1       6.018  -3.215  -2.903  0.00  0.00    +0.000 S 
ATOM      9  O   UNL     1       7.264  -3.230  -2.163  0.00  0.00    +0.000 OA
ATOM     10  O   UNL     1       5.791  -2.349  -4.032  0.00  0.00    +0.000 OA
ATOM     11  C   UNL     1       2.964  -3.884  -0.381  0.00  0.00    +0.000 A 
ATOM     12  C   UNL     1       2.608  -2.619   0.082  0.00  0.00    +0.000 A 
ATOM     13 CL   UNL     1       1.370  -2.571   1.287  0.00  0.00    +0.000 Cl
ATOM     14  H   UNL     1       3.441  -5.822  -2.100  0.00  0.00    +0.000 HD
ATOM     15  H   UNL     1       4.988  -4.795  -4.152  0.00  0.00    +0.000 HD
ENDROOT
BRANCH   1  16
ATOM     16  S   UNL     1       2.762   0.132  -0.001  0.00  0.00    +0.000 S 
ATOM     17  O   UNL     1       3.161   1.023  -1.065  0.00  0.00    +0.000 OA
ATOM     18  O   UNL     1       3.133   0.362   1.374  0.00  0.00    +0.000 OA
BRANCH  16  19
ATOM     19  N   UNL     1       1.076   0.094  -0.053  0.00  0.00    +0.000 NA
ATOM     20  H   UNL     1       0.715   1.035   0.121  0.00  0.00    +0.000 HD
ATOM     21  H   UNL     1       0.704  -0.554   0.646  0.00  0.00    +0.000 HD
ENDBRANCH  16  19
ENDBRANCH   1  16
BRANCH   6  22
ATOM     22  C   UNL     1       5.459  -7.152  -2.801  0.00  0.00    +0.000 C 
BRANCH  22  23
ATOM     23  C   UNL     1       5.177  -8.159  -1.658  0.00  0.00    +0.000 C 
ATOM     24  C   UNL     1       6.129  -8.064  -0.467  0.00  0.00    +0.000 C 
ATOM     25  C   UNL     1       5.387  -8.762   0.673  0.00  0.00    +0.000 C 
ATOM     26  C   UNL     1       3.898  -8.617   0.390  0.00  0.00    +0.000 C 
ATOM     27  C   UNL     1       3.810  -7.997  -0.983  0.00  0.00    +0.000 C 
ENDBRANCH  22  23
ENDBRANCH   6  22
TORSDOF 4
