REMARK  Name = Cyclizine
REMARK  4 active torsions:
REMARK  status: ('A' for Active; 'I' for Inactive)
REMARK    1  A    between atoms: C_1  and  N_2
REMARK    2  A    between atoms: N_5  and  C_8
REMARK    3  A    between atoms: C_8  and  C_9
REMARK    4  A    between atoms: C_8  and  C_15
REMARK                            x       y       z     vdW  Elec       q    Type
REMARK                         _______ _______ _______ _____ _____    ______ ____
ROOT
ATOM      1  C   UNL     1      -2.110  -0.047   1.590  0.00  0.00    +0.000 C 
ENDROOT
BRANCH   1   6
ATOM      2  C   UNL     1       2.503   0.007   0.063  0.00  0.00    +0.000 C 
ATOM      3  N   UNL     1       1.104   0.036  -0.331  0.00  0.00    +0.000 NA
ATOM      4  C   UNL     1       0.412   1.228   0.191  0.00  0.00    +0.000 C 
ATOM      5  C   UNL     1      -1.077   1.250  -0.241  0.00  0.00    +0.000 C 
ATOM      6  N   UNL     1      -1.847   0.018   0.115  0.00  0.00    +0.000 NA
ATOM      7  C   UNL     1      -1.063  -1.113  -0.427  0.00  0.00    +0.000 C 
ATOM      8  C   UNL     1       0.387  -1.167   0.113  0.00  0.00    +0.000 C 
ENDBRANCH   1   6
BRANCH   1   9
ATOM      9  C   UNL     1      -2.919   1.197   2.005  0.00  0.00    +0.000 A 
ATOM     10  C   UNL     1      -2.453   2.058   3.008  0.00  0.00    +0.000 A 
ATOM     11  C   UNL     1      -3.276   3.077   3.485  0.00  0.00    +0.000 A 
ATOM     12  C   UNL     1      -4.549   3.265   2.944  0.00  0.00    +0.000 A 
ATOM     13  C   UNL     1      -4.994   2.458   1.899  0.00  0.00    +0.000 A 
ATOM     14  C   UNL     1      -4.173   1.449   1.413  0.00  0.00    +0.000 A 
ENDBRANCH   1   9
BRANCH   1  15
ATOM     15  C   UNL     1      -2.780  -1.356   2.106  0.00  0.00    +0.000 A 
ATOM     16  C   UNL     1      -4.022  -1.373   2.764  0.00  0.00    +0.000 A 
ATOM     17  C   UNL     1      -4.597  -2.561   3.230  0.00  0.00    +0.000 A 
ATOM     18  C   UNL     1      -3.975  -3.776   2.982  0.00  0.00    +0.000 A 
ATOM     19  C   UNL     1      -2.741  -3.797   2.360  0.00  0.00    +0.000 A 
ATOM     20  C   UNL     1      -2.123  -2.596   2.006  0.00  0.00    +0.000 A 
ENDBRANCH   1  15
TORSDOF 3
