REMARK  Name = Cyclophosphamide
REMARK  5 active torsions:
REMARK  status: ('A' for Active; 'I' for Inactive)
REMARK    1  A    between atoms: C_2  and  C_3
REMARK    2  A    between atoms: C_3  and  N_4
REMARK    3  A    between atoms: N_4  and  C_5
REMARK    4  A    between atoms: N_4  and  P_8
REMARK    5  A    between atoms: C_5  and  C_6
REMARK                            x       y       z     vdW  Elec       q    Type
REMARK                         _______ _______ _______ _____ _____    ______ ____
ROOT
ATOM      1  P   UNL     1       4.626  -3.138   0.679  0.00  0.00    +0.000 P 
ATOM      2  O   UNL     1       3.277  -3.827   0.759  0.00  0.00    +0.000 OA
ATOM      3  N   UNL     1       5.574  -3.900  -0.415  0.00  0.00    +0.000 NA
ATOM      4  C   UNL     1       5.828  -5.319  -0.102  0.00  0.00    +0.000 C 
ATOM      5  C   UNL     1       5.408  -5.733   1.319  0.00  0.00    +0.000 C 
ATOM      6  C   UNL     1       5.840  -4.690   2.350  0.00  0.00    +0.000 C 
ATOM      7  O   UNL     1       5.425  -3.358   2.052  0.00  0.00    +0.000 OA
ATOM      8  H   UNL     1       5.170  -3.860  -1.346  0.00  0.00    +0.000 HD
ENDROOT
BRANCH   1   9
ATOM      9  N   UNL     1       4.508  -1.480   0.360  0.00  0.00    +0.000 NA
BRANCH   9  10
ATOM     10  C   UNL     1       3.047  -1.233   0.217  0.00  0.00    +0.000 C 
BRANCH  10  12
ATOM     11 CL   UNL     1       0.662  -0.144  -0.458  0.00  0.00    +0.000 Cl
ATOM     12  C   UNL     1       2.417   0.084  -0.198  0.00  0.00    +0.000 C 
ENDBRANCH  10  12
ENDBRANCH   9  10
BRANCH   9  13
ATOM     13  C   UNL     1       5.177  -0.549   1.324  0.00  0.00    +0.000 C 
BRANCH  13  14
ATOM     14  C   UNL     1       4.978   0.979   1.167  0.00  0.00    +0.000 C 
ATOM     15 CL   UNL     1       5.917   1.934   2.348  0.00  0.00    +0.000 Cl
ENDBRANCH  13  14
ENDBRANCH   9  13
ENDBRANCH   1   9
TORSDOF 5
