REMARK  Name = Cyclothiazide
REMARK  3 active torsions:
REMARK  status: ('A' for Active; 'I' for Inactive)
REMARK    1  A    between atoms: N_1  and  S_2
REMARK    2  A    between atoms: S_2  and  C_5
REMARK    3  A    between atoms: C_11  and  C_18
REMARK                            x       y       z     vdW  Elec       q    Type
REMARK                         _______ _______ _______ _____ _____    ______ ____
ROOT
ATOM      1  C   UNL     1       3.192  -0.953   1.312  0.00  0.00    +0.000 A 
ATOM      2  C   UNL     1       2.935  -2.322   1.250  0.00  0.00    +0.000 A 
ATOM      3 CL   UNL     1       2.102  -3.112  -0.039  0.00  0.00    +0.000 Cl
ATOM      4  C   UNL     1       3.361  -3.122   2.311  0.00  0.00    +0.000 A 
ATOM      5  C   UNL     1       4.010  -2.554   3.428  0.00  0.00    +0.000 A 
ATOM      6  N   UNL     1       4.485  -3.358   4.426  0.00  0.00    +0.000 N 
ATOM      7  C   UNL     1       4.736  -2.923   5.828  0.00  0.00    +0.000 C 
ATOM      8  N   UNL     1       5.711  -1.875   5.666  0.00  0.00    +0.000 NA
ATOM      9  S   UNL     1       5.057  -0.537   4.897  0.00  0.00    +0.000 S 
ATOM     10  O   UNL     1       4.019  -0.015   5.785  0.00  0.00    +0.000 OA
ATOM     11  O   UNL     1       6.164   0.241   4.445  0.00  0.00    +0.000 OA
ATOM     12  C   UNL     1       4.223  -1.197   3.484  0.00  0.00    +0.000 A 
ATOM     13  C   UNL     1       3.846  -0.388   2.426  0.00  0.00    +0.000 A 
ATOM     14  H   UNL     1       4.297  -4.323   4.197  0.00  0.00    +0.000 HD
ATOM     15  H   UNL     1       6.555  -2.165   5.174  0.00  0.00    +0.000 HD
ENDROOT
BRANCH   7  16
ATOM     16  C   UNL     1       5.368  -4.088   6.774  0.00  0.00    +0.000 C 
ATOM     17  C   UNL     1       6.332  -4.766   5.838  0.00  0.00    +0.000 C 
ATOM     18  C   UNL     1       5.330  -5.800   5.268  0.00  0.00    +0.000 C 
ATOM     19  C   UNL     1       3.767  -5.420   5.868  0.00  0.00    +0.000 C 
ATOM     20  C   UNL     1       4.384  -5.316   7.213  0.00  0.00    +0.000 C 
ATOM     21  C   UNL     1       4.710  -6.831   7.100  0.00  0.00    +0.000 C 
ATOM     22  C   UNL     1       5.444  -7.072   6.002  0.00  0.00    +0.000 C 
ENDBRANCH   7  16
BRANCH   1  23
ATOM     23  S   UNL     1       2.722   0.123   0.001  0.00  0.00    +0.000 S 
ATOM     24  O   UNL     1       3.139  -0.444  -1.256  0.00  0.00    +0.000 OA
ATOM     25  O   UNL     1       3.081   1.472   0.379  0.00  0.00    +0.000 OA
BRANCH  23  26
ATOM     26  N   UNL     1       1.043   0.081   0.077  0.00  0.00    +0.000 NA
ATOM     27  H   UNL     1       0.661   0.552  -0.746  0.00  0.00    +0.000 HD
ATOM     28  H   UNL     1       0.681   0.481   0.942  0.00  0.00    +0.000 HD
ENDBRANCH  23  26
ENDBRANCH   1  23
TORSDOF 3
