REMARK  Name = Cyclandelate
REMARK  8 active torsions:
REMARK  status: ('A' for Active; 'I' for Inactive)
REMARK    1  A    between atoms: C_1  and  C_2
REMARK    2  A    between atoms: C_4  and  O_10
REMARK    3  A    between atoms: C_6  and  C_7
REMARK    4  A    between atoms: C_6  and  C_8
REMARK    5  A    between atoms: O_10  and  C_11
REMARK    6  A    between atoms: C_11  and  C_13
REMARK    7  A    between atoms: C_13  and  O_14
REMARK    8  A    between atoms: C_13  and  C_15
REMARK                            x       y       z     vdW  Elec       q    Type
REMARK                         _______ _______ _______ _____ _____    ______ ____
ROOT
ATOM      1  C   UNL     1       2.676  -3.423  -3.284  0.00  0.00    +0.000 C 
ATOM      2  O   UNL     1       1.769  -2.839  -3.855  0.00  0.00    +0.000 OA
ENDROOT
BRANCH   1   3
ATOM      3  O   UNL     1       3.240  -2.955  -2.128  0.00  0.00    +0.000 OA
BRANCH   3   7
ATOM      4  C   UNL     1       1.051   0.060   0.286  0.00  0.00    +0.000 C 
ATOM      5  C   UNL     1       2.565   0.080   0.045  0.00  0.00    +0.000 C 
ATOM      6  C   UNL     1       3.088  -1.311  -0.352  0.00  0.00    +0.000 C 
ATOM      7  C   UNL     1       2.678  -1.680  -1.776  0.00  0.00    +0.000 C 
ATOM      8  C   UNL     1       3.169  -0.611  -2.768  0.00  0.00    +0.000 C 
ATOM      9  C   UNL     1       2.619   0.785  -2.456  0.00  0.00    +0.000 C 
ATOM     10  C   UNL     1       1.103   0.860  -2.725  0.00  0.00    +0.000 C 
ATOM     11  C   UNL     1       3.253   1.780  -3.440  0.00  0.00    +0.000 C 
ATOM     12  C   UNL     1       3.006   1.131  -1.000  0.00  0.00    +0.000 C 
ENDBRANCH   3   7
ENDBRANCH   1   3
BRANCH   1  13
ATOM     13  C   UNL     1       3.266  -4.769  -3.728  0.00  0.00    +0.000 C 
BRANCH  13  14
ATOM     14  C   UNL     1       2.882  -5.161  -5.154  0.00  0.00    +0.000 A 
ATOM     15  C   UNL     1       2.415  -4.223  -6.094  0.00  0.00    +0.000 A 
ATOM     16  C   UNL     1       1.871  -4.616  -7.311  0.00  0.00    +0.000 A 
ATOM     17  C   UNL     1       1.957  -5.943  -7.697  0.00  0.00    +0.000 A 
ATOM     18  C   UNL     1       2.526  -6.879  -6.834  0.00  0.00    +0.000 A 
ATOM     19  C   UNL     1       2.971  -6.497  -5.565  0.00  0.00    +0.000 A 
ENDBRANCH  13  14
BRANCH  13  20
ATOM     20  O   UNL     1       2.770  -5.759  -2.813  0.00  0.00    +0.000 OA
ATOM     21  H   UNL     1       1.802  -5.767  -2.929  0.00  0.00    +0.000 HD
ENDBRANCH  13  20
ENDBRANCH   1  13
TORSDOF 5
