REMARK  Name = Cyclacillin
REMARK  7 active torsions:
REMARK  status: ('A' for Active; 'I' for Inactive)
REMARK    1  A    between atoms: C_4  and  C_5
REMARK    2  A    between atoms: C_4  and  C_6
REMARK    3  A    between atoms: CA_7  and  C_22
REMARK    4  A    between atoms: CA_11  and  N_12
REMARK    5  A    between atoms: C_13  and  C_15
REMARK    6  A    between atoms: C_15  and  N_16
REMARK    7  A    between atoms: C_22  and  O_23
REMARK                            x       y       z     vdW  Elec       q    Type
REMARK                         _______ _______ _______ _____ _____    ______ ____
ROOT
ATOM      1  C   UNL     1       2.100   0.001   0.075  0.00  0.00    +0.000 C 
ATOM      2  S   UNL     1       2.566  -1.228  -1.209  0.00  0.00    +0.000 S 
ATOM      3  C   UNL     1       2.900  -2.520   0.107  0.00  0.00    +0.000 C 
ATOM      4  C   UNL     1       3.838  -3.565  -0.509  0.00  0.00    +0.000 C 
ATOM      5  C   UNL     1       1.525  -3.115   0.466  0.00  0.00    +0.000 C 
ATOM      6  CA  UNL     1       3.585  -1.701   1.225  0.00  0.00    +0.000 C 
ATOM      7  N   UNL     1       2.951  -0.365   1.219  0.00  0.00    +0.000 N 
ATOM      8  C   UNL     1       3.706   0.777   1.128  0.00  0.00    +0.000 C 
ATOM      9  O   UNL     1       4.816   1.037   1.559  0.00  0.00    +0.000 OA
ATOM     10  CA  UNL     1       2.758   1.400   0.073  0.00  0.00    +0.000 C 
ENDROOT
BRANCH  10  11
ATOM     11  N   UNL     1       3.380   1.809  -1.199  0.00  0.00    +0.000 N 
ATOM     12  C   UNL     1       3.955   3.040  -1.404  0.00  0.00    +0.000 C 
ATOM     13  O   UNL     1       3.960   3.902  -0.524  0.00  0.00    +0.000 OA
ATOM     14  H   UNL     1       3.634   1.048  -1.807  0.00  0.00    +0.000 HD
BRANCH  12  15
ATOM     15  C   UNL     1       4.631   3.281  -2.803  0.00  0.00    +0.000 C 
ATOM     16  C   UNL     1       6.025   2.636  -2.817  0.00  0.00    +0.000 C 
ATOM     17  C   UNL     1       5.940   1.112  -2.836  0.00  0.00    +0.000 C 
ATOM     18  C   UNL     1       5.078   0.608  -3.998  0.00  0.00    +0.000 C 
ATOM     19  C   UNL     1       3.704   1.270  -4.137  0.00  0.00    +0.000 C 
ATOM     20  C   UNL     1       3.784   2.790  -3.995  0.00  0.00    +0.000 C 
BRANCH  15  21
ATOM     21  N   UNL     1       4.784   4.753  -2.973  0.00  0.00    +0.000 NA
ATOM     22  H   UNL     1       5.307   5.107  -2.165  0.00  0.00    +0.000 HD
ATOM     23  H   UNL     1       3.863   5.183  -2.854  0.00  0.00    +0.000 HD
ENDBRANCH  15  21
ENDBRANCH  12  15
ENDBRANCH  10  11
BRANCH   6  24
ATOM     24  C   UNL     1       3.629  -2.257   2.665  0.00  0.00    +0.000 C 
ATOM     25  OXT UNL     1       4.074  -1.610   3.606  0.00  0.00    +0.000 OA
BRANCH  24  26
ATOM     26  O   UNL     1       3.187  -3.508   2.904  0.00  0.00    +0.000 OA
ATOM     27  H   UNL     1       3.020  -4.127   2.178  0.00  0.00    +0.000 HD
ENDBRANCH  24  26
ENDBRANCH   6  24
TORSDOF 5
