REMARK  Name = Cycloguanil
REMARK  3 active torsions:
REMARK  status: ('A' for Active; 'I' for Inactive)
REMARK    1  A    between atoms: C_1  and  C_2
REMARK    2  A    between atoms: C_2  and  C_3
REMARK    3  A    between atoms: N_10  and  C_11
REMARK                            x       y       z     vdW  Elec       q    Type
REMARK                         _______ _______ _______ _____ _____    ______ ____
ROOT
ATOM      1  C   UNL     1       1.061   0.034   0.076  0.00  0.00    +0.000 C 
ATOM      2  C   UNL     1       2.600   0.077   0.043  0.00  0.00    +0.000 C 
ATOM      3  C   UNL     1       3.228  -0.114   1.434  0.00  0.00    +0.000 C 
ATOM      4  N   UNL     1       2.990  -1.140  -0.650  0.00  0.00    +0.000 NA
ATOM      5  C   UNL     1       3.745  -1.045  -1.687  0.00  0.00    +0.000 C 
ATOM      6  N   UNL     1       4.133  -2.215  -2.231  0.00  0.00    +0.000 N 
ATOM      7  N   UNL     1       4.150   0.124  -2.249  0.00  0.00    +0.000 NA
ATOM      8  C   UNL     1       3.779   1.242  -1.700  0.00  0.00    +0.000 C 
ATOM      9  N   UNL     1       4.157   2.411  -2.274  0.00  0.00    +0.000 N 
ATOM     10  N   UNL     1       3.042   1.347  -0.551  0.00  0.00    +0.000 N 
ATOM     11  H   UNL     1       3.840  -3.068  -1.777  0.00  0.00    +0.000 HD
ATOM     12  H   UNL     1       4.744  -2.244  -3.030  0.00  0.00    +0.000 HD
ATOM     13  H   UNL     1       4.765   2.396  -3.079  0.00  0.00    +0.000 HD
ATOM     14  H   UNL     1       3.953   3.297  -1.838  0.00  0.00    +0.000 HD
ENDROOT
BRANCH  10  15
ATOM     15  C   UNL     1       2.608   2.544   0.070  0.00  0.00    +0.000 A 
ATOM     16  C   UNL     1       3.035   2.880   1.366  0.00  0.00    +0.000 A 
ATOM     17  C   UNL     1       2.467   3.928   2.087  0.00  0.00    +0.000 A 
ATOM     18  C   UNL     1       1.542   4.752   1.468  0.00  0.00    +0.000 A 
ATOM     19 CL   UNL     1       0.878   6.076   2.340  0.00  0.00    +0.000 Cl
ATOM     20  C   UNL     1       1.177   4.519   0.143  0.00  0.00    +0.000 A 
ATOM     21  C   UNL     1       1.692   3.410  -0.547  0.00  0.00    +0.000 A 
ENDBRANCH  10  15
TORSDOF 1
