REMARK  Name = Cycloserine
REMARK  1 active torsions:
REMARK  status: ('A' for Active; 'I' for Inactive)
REMARK    1  A    between atoms: N_1  and  C_2
REMARK                            x       y       z     vdW  Elec       q    Type
REMARK                         _______ _______ _______ _____ _____    ______ ____
ROOT
ATOM      1  C   UNL     1       2.342   0.044   0.036  0.00  0.00    +0.000 C 
ATOM      2  C   UNL     1       2.990  -1.178   0.665  0.00  0.00    +0.000 C 
ATOM      3  O   UNL     1       4.263  -0.753   1.179  0.00  0.00    +0.000 OA
ATOM      4  N   UNL     1       4.198   0.658   1.244  0.00  0.00    +0.000 N 
ATOM      5  C   UNL     1       2.976   1.140   0.848  0.00  0.00    +0.000 C 
ATOM      6  O   UNL     1       2.567   2.284   1.005  0.00  0.00    +0.000 OA
ATOM      7  H   UNL     1       4.966   1.192   1.629  0.00  0.00    +0.000 HD
ENDROOT
BRANCH   1   8
ATOM      8  N   UNL     1       0.877   0.051   0.047  0.00  0.00    +0.000 NA
ATOM      9  H   UNL     1       0.533  -0.663  -0.592  0.00  0.00    +0.000 HD
ATOM     10  H   UNL     1       0.562   0.950  -0.326  0.00  0.00    +0.000 HD
ENDBRANCH   1   8
TORSDOF 1
