REMARK  Name = Cycrimine
REMARK  6 active torsions:
REMARK  status: ('A' for Active; 'I' for Inactive)
REMARK    1  A    between atoms: O_1  and  C_2
REMARK    2  A    between atoms: C_2  and  C_3
REMARK    3  A    between atoms: C_2  and  C_11
REMARK    4  A    between atoms: C_2  and  C_16
REMARK    5  A    between atoms: C_3  and  C_4
REMARK    6  A    between atoms: C_4  and  N_5
REMARK                            x       y       z     vdW  Elec       q    Type
REMARK                         _______ _______ _______ _____ _____    ______ ____
ROOT
ATOM      1  C   UNL     1       2.414  -0.016  -0.169  0.00  0.00    +0.000 C 
ENDROOT
BRANCH   1   2
ATOM      2  C   UNL     1       2.862   1.202  -0.987  0.00  0.00    +0.000 A 
ATOM      3  C   UNL     1       3.959   1.185  -1.866  0.00  0.00    +0.000 A 
ATOM      4  C   UNL     1       4.402   2.365  -2.474  0.00  0.00    +0.000 A 
ATOM      5  C   UNL     1       3.766   3.570  -2.215  0.00  0.00    +0.000 A 
ATOM      6  C   UNL     1       2.674   3.612  -1.356  0.00  0.00    +0.000 A 
ATOM      7  C   UNL     1       2.210   2.429  -0.785  0.00  0.00    +0.000 A 
ENDBRANCH   1   2
BRANCH   1   8
ATOM      8  C   UNL     1       2.899  -1.372  -0.750  0.00  0.00    +0.000 C 
ATOM      9  C   UNL     1       2.638  -2.606   0.124  0.00  0.00    +0.000 C 
ATOM     10  C   UNL     1       2.785  -3.770  -0.838  0.00  0.00    +0.000 C 
ATOM     11  C   UNL     1       2.376  -3.234  -2.206  0.00  0.00    +0.000 C 
ATOM     12  C   UNL     1       2.191  -1.733  -2.053  0.00  0.00    +0.000 C 
ENDBRANCH   1   8
BRANCH   1  13
ATOM     13  O   UNL     1       0.982  -0.006  -0.111  0.00  0.00    +0.000 OA
ATOM     14  H   UNL     1       0.696  -0.742   0.454  0.00  0.00    +0.000 HD
ENDBRANCH   1  13
BRANCH   1  15
ATOM     15  C   UNL     1       2.946   0.091   1.266  0.00  0.00    +0.000 C 
BRANCH  15  16
ATOM     16  C   UNL     1       2.524   1.329   2.060  0.00  0.00    +0.000 C 
BRANCH  16  17
ATOM     17  N   UNL     1       3.035   1.404   3.439  0.00  0.00    +0.000 NA
ATOM     18  C   UNL     1       3.972   0.327   3.772  0.00  0.00    +0.000 C 
ATOM     19  C   UNL     1       4.424   0.404   5.214  0.00  0.00    +0.000 C 
ATOM     20  C   UNL     1       5.070   1.751   5.487  0.00  0.00    +0.000 C 
ATOM     21  C   UNL     1       4.139   2.887   5.077  0.00  0.00    +0.000 C 
ATOM     22  C   UNL     1       3.665   2.722   3.640  0.00  0.00    +0.000 C 
ENDBRANCH  16  17
ENDBRANCH  15  16
ENDBRANCH   1  15
TORSDOF 6
