REMARK  Name = Cyproterone acetate
REMARK  7 active torsions:
REMARK  status: ('A' for Active; 'I' for Inactive)
REMARK    1  A    between atoms: C_6  and  C_7
REMARK    2  A    between atoms: C_21  and  O_22
REMARK    3  A    between atoms: C_21  and  C_26
REMARK    4  A    between atoms: O_22  and  C_23
REMARK    5  A    between atoms: C_23  and  C_24
REMARK    6  A    between atoms: C_26  and  C_27
REMARK    7  A    between atoms: C_29  and  C_30
REMARK                            x       y       z     vdW  Elec       q    Type
REMARK                         _______ _______ _______ _____ _____    ______ ____
ROOT
ATOM      1  C   UNL     1       1.955  -0.563   0.464  0.00  0.00    +0.000 C 
ATOM      2  C   UNL     1       2.352  -0.084  -0.736  0.00  0.00    +0.000 C 
ATOM      3  C   UNL     1       1.011   0.716   0.475  0.00  0.00    +0.000 C 
ATOM      4  C   UNL     1      -0.752   0.406   1.489  0.00  0.00    +0.000 C 
ATOM      5  C   UNL     1      -1.129   0.184   3.162  0.00  0.00    +0.000 C 
ATOM      6  C   UNL     1      -0.077  -0.841   1.276  0.00  0.00    +0.000 C 
ATOM      7  C   UNL     1       0.987  -0.878   2.275  0.00  0.00    +0.000 C 
ATOM      8  C   UNL     1       2.387  -0.581   1.810  0.00  0.00    +0.000 C 
ATOM      9  O   UNL     1       3.311  -0.045   2.285  0.00  0.00    +0.000 OA
ATOM     10  C   UNL     1      -0.487  -0.734  -0.476  0.00  0.00    +0.000 C 
ATOM     11 CL   UNL     1       0.172   0.435  -1.973  0.00  0.00    +0.000 Cl
ATOM     12  C   UNL     1      -1.734  -0.379  -0.811  0.00  0.00    +0.000 C 
ATOM     13  C   UNL     1      -2.894  -0.513  -0.001  0.00  0.00    +0.000 C 
ATOM     14  C   UNL     1      -3.543  -1.736  -0.611  0.00  0.00    +0.000 C 
ATOM     15  C   UNL     1      -3.716  -1.315  -2.060  0.00  0.00    +0.000 C 
ATOM     16  C   UNL     1      -4.925  -2.103  -2.178  0.00  0.00    +0.000 C 
ATOM     17  C   UNL     1      -5.787  -1.040  -0.817  0.00  0.00    +0.000 C 
ATOM     18  C   UNL     1      -4.967  -2.029  -0.019  0.00  0.00    +0.000 C 
ATOM     19  C   UNL     1      -5.875  -3.339  -0.376  0.00  0.00    +0.000 C 
ATOM     20  C   UNL     1      -4.719  -2.135   1.492  0.00  0.00    +0.000 C 
ATOM     21  C   UNL     1      -3.766  -1.018   2.153  0.00  0.00    +0.000 C 
ATOM     22  C   UNL     1      -2.295  -0.728   1.305  0.00  0.00    +0.000 C 
ENDROOT
BRANCH  17  23
ATOM     23  C   UNL     1      -6.305  -0.100  -1.903  0.00  0.00    +0.000 C 
ATOM     24  C   UNL     1      -6.576  -0.715  -3.201  0.00  0.00    +0.000 C 
ATOM     25  O   UNL     1      -6.423   1.114  -1.813  0.00  0.00    +0.000 OA
ENDBRANCH  17  23
BRANCH  17  26
ATOM     26  O   UNL     1      -7.122  -0.961  -0.041  0.00  0.00    +0.000 OA
BRANCH  26  27
ATOM     27  C   UNL     1      -7.822   0.086   0.609  0.00  0.00    +0.000 C 
ATOM     28  C   UNL     1      -7.535   1.571   0.397  0.00  0.00    +0.000 C 
ATOM     29  O   UNL     1      -8.815  -0.173   1.304  0.00  0.00    +0.000 OA
ENDBRANCH  26  27
ENDBRANCH  17  26
TORSDOF 3
