REMARK  Name = Cyproheptadine
REMARK  1 active torsions:
REMARK  status: ('A' for Active; 'I' for Inactive)
REMARK    1  A    between atoms: C_1  and  N_2
REMARK                            x       y       z     vdW  Elec       q    Type
REMARK                         _______ _______ _______ _____ _____    ______ ____
ROOT
ATOM      1  C   UNL     1       0.923  -0.012   0.030  0.00  0.00    +0.000 C 
ATOM      2  N   UNL     1       2.387  -0.025  -0.041  0.00  0.00    +0.000 NA
ATOM      3  C   UNL     1       2.881  -1.370  -0.395  0.00  0.00    +0.000 C 
ATOM      4  C   UNL     1       2.465  -1.817  -1.799  0.00  0.00    +0.000 C 
ATOM      5  C   UNL     1       2.934  -0.808  -2.827  0.00  0.00    +0.000 C 
ATOM      6  C   UNL     1       2.493   0.608  -2.486  0.00  0.00    +0.000 C 
ATOM      7  C   UNL     1       2.875   0.953  -1.036  0.00  0.00    +0.000 C 
ATOM      8  C   UNL     1       3.725  -1.135  -3.877  0.00  0.00    +0.000 C 
ATOM      9  C   UNL     1       4.199  -2.512  -4.087  0.00  0.00    +0.000 A 
ATOM     10  C   UNL     1       3.269  -3.499  -4.442  0.00  0.00    +0.000 A 
ATOM     11  C   UNL     1       3.696  -4.793  -4.703  0.00  0.00    +0.000 A 
ATOM     12  C   UNL     1       5.054  -5.097  -4.634  0.00  0.00    +0.000 A 
ATOM     13  C   UNL     1       5.989  -4.110  -4.299  0.00  0.00    +0.000 A 
ATOM     14  C   UNL     1       5.577  -2.800  -4.036  0.00  0.00    +0.000 A 
ATOM     15  C   UNL     1       6.590  -1.778  -3.695  0.00  0.00    +0.000 C 
ATOM     16  C   UNL     1       6.588  -0.495  -4.098  0.00  0.00    +0.000 C 
ATOM     17  C   UNL     1       5.568   0.148  -4.956  0.00  0.00    +0.000 A 
ATOM     18  C   UNL     1       5.968   1.070  -5.926  0.00  0.00    +0.000 A 
ATOM     19  C   UNL     1       5.021   1.684  -6.757  0.00  0.00    +0.000 A 
ATOM     20  C   UNL     1       3.665   1.393  -6.629  0.00  0.00    +0.000 A 
ATOM     21  C   UNL     1       3.250   0.486  -5.668  0.00  0.00    +0.000 A 
ATOM     22  C   UNL     1       4.193  -0.116  -4.823  0.00  0.00    +0.000 A 
ENDROOT
TORSDOF 0
