REMARK  Name = Cysteine
REMARK  5 active torsions:
REMARK  status: ('A' for Active; 'I' for Inactive)
REMARK    1  A    between atoms: N_1  and  CA_2
REMARK    2  A    between atoms: CA_2  and  CB_3
REMARK    3  A    between atoms: CA_2  and  C_5
REMARK    4  A    between atoms: CB_3  and  SG_4
REMARK    5  A    between atoms: C_5  and  O_6
REMARK                            x       y       z     vdW  Elec       q    Type
REMARK                         _______ _______ _______ _____ _____    ______ ____
ROOT
ATOM      1  CA  CYS A   1       2.445  -0.099   0.106  0.00  0.00    +0.000 C 
ENDROOT
BRANCH   1   2
ATOM      2  N   CYS A   1       0.950  -0.154   0.143  0.00  0.00    +0.000 NA
ATOM      3  H1  CYS A   1       0.637   0.561  -0.530  0.00  0.00    +0.000 HD
ATOM      4  H2  CYS A   1       0.629   0.242   1.031  0.00  0.00    +0.000 HD
ENDBRANCH   1   2
BRANCH   1   5
ATOM      5  C   CYS A   1       3.040  -1.165   1.034  0.00  0.00    +0.000 C 
ATOM      6  OXT CYS A   1       4.244  -1.325   1.206  0.00  0.00    +0.000 OA
BRANCH   5   7
ATOM      7  O   CYS A   1       2.111  -1.918   1.671  0.00  0.00    +0.000 OA
ATOM      8  H   CYS A   1       1.219  -1.690   1.320  0.00  0.00    +0.000 HD
ENDBRANCH   5   7
ENDBRANCH   1   5
BRANCH   1   9
ATOM      9  CB  CYS A   1       2.980   1.281   0.523  0.00  0.00    +0.000 C 
BRANCH   9  10
ATOM     10  SG  CYS A   1       2.344   2.632  -0.537  0.00  0.00    +0.000 S 
ATOM     11  HG  CYS A   1       2.898   2.232  -1.693  0.00  0.00    +0.000 HD
ENDBRANCH   9  10
ENDBRANCH   1   9
TORSDOF 5
