REMARK  Name = Cysteamine
REMARK  3 active torsions:
REMARK  status: ('A' for Active; 'I' for Inactive)
REMARK    1  A    between atoms: N_1  and  C_2
REMARK    2  A    between atoms: C_2  and  C_3
REMARK    3  A    between atoms: C_3  and  S_4
REMARK                            x       y       z     vdW  Elec       q    Type
REMARK                         _______ _______ _______ _____ _____    ______ ____
ROOT
ATOM      1  C   UNL     1       2.542   0.066  -0.016  0.00  0.00    +0.000 C 
ENDROOT
BRANCH   1   2
ATOM      2  N   UNL     1       1.078   0.052  -0.024  0.00  0.00    +0.000 NA
ATOM      3  H   UNL     1       0.744   0.313  -0.952  0.00  0.00    +0.000 HD
ATOM      4  H   UNL     1       0.725   0.768   0.611  0.00  0.00    +0.000 HD
ENDBRANCH   1   2
BRANCH   1   5
ATOM      5  C   UNL     1       3.086  -0.275   1.374  0.00  0.00    +0.000 C 
BRANCH   5   6
ATOM      6  S   UNL     1       4.904  -0.213   1.404  0.00  0.00    +0.000 S 
ATOM      7  H   UNL     1       5.112  -1.194   0.513  0.00  0.00    +0.000 HD
ENDBRANCH   5   6
ENDBRANCH   1   5
TORSDOF 3
