REMARK  Name = Cystine
REMARK  11 active torsions:
REMARK  status: ('A' for Active; 'I' for Inactive)
REMARK    1  A    between atoms: N_1  and  CA_2
REMARK    2  A    between atoms: CA_2  and  CB_3
REMARK    3  A    between atoms: CA_2  and  C_12
REMARK    4  A    between atoms: CB_3  and  SG_4
REMARK    5  A    between atoms: SG_4  and  SG_5
REMARK    6  A    between atoms: SG_5  and  CB_6
REMARK    7  A    between atoms: CB_6  and  CA_7
REMARK    8  A    between atoms: CA_7  and  N_8
REMARK    9  A    between atoms: CA_7  and  C_9
REMARK   10  A    between atoms: C_9  and  O_10
REMARK   11  A    between atoms: C_12  and  O_13
REMARK                            x       y       z     vdW  Elec       q    Type
REMARK                         _______ _______ _______ _____ _____    ______ ____
ROOT
ATOM      1  SG  CYS A   1       7.170   7.093   5.084  0.00  0.00    +0.000 S 
ENDROOT
BRANCH   1   2
ATOM      2  CB  CYS A   1       7.731   8.303   6.371  0.00  0.00    +0.000 C 
BRANCH   2   3
ATOM      3  CA  CYS A   1       9.269   8.316   6.457  0.00  0.00    +0.000 C 
BRANCH   3   4
ATOM      4  N   CYS A   1       9.820   6.975   6.839  0.00  0.00    +0.000 NA
ATOM      5  H1  CYS A   1       9.510   6.338   6.089  0.00  0.00    +0.000 HD
ATOM      6  H2  CYS A   1       9.298   6.624   7.646  0.00  0.00    +0.000 HD
ENDBRANCH   3   4
BRANCH   3   7
ATOM      7  C   CYS A   1       9.730   9.378   7.466  0.00  0.00    +0.000 C 
ATOM      8  OXT CYS A   1       9.426  10.563   7.400  0.00  0.00    +0.000 OA
BRANCH   7   9
ATOM      9  O   CYS A   1      10.519   8.887   8.455  0.00  0.00    +0.000 OA
ATOM     10  H   CYS A   1      10.723   7.944   8.263  0.00  0.00    +0.000 HD
ENDBRANCH   7   9
ENDBRANCH   3   7
ENDBRANCH   2   3
ENDBRANCH   1   2
BRANCH   1  11
ATOM     11  SG  CYS A   1       5.139   7.066   5.358  0.00  0.00    +0.000 S 
BRANCH  11  12
ATOM     12  CB  CYS A   1       4.458   6.056   3.970  0.00  0.00    +0.000 C 
BRANCH  12  13
ATOM     13  CA  CYS A   1       2.907   6.077   3.910  0.00  0.00    +0.000 C 
BRANCH  13  14
ATOM     14  N   CYS A   1       2.417   5.267   2.759  0.00  0.00    +0.000 NA
ATOM     15  H1  CYS A   1       2.766   5.608   1.867  0.00  0.00    +0.000 HD
ATOM     16  H2  CYS A   1       1.402   5.177   2.768  0.00  0.00    +0.000 HD
ENDBRANCH  13  14
BRANCH  13  17
ATOM     17  C   CYS A   1       2.329   7.511   3.869  0.00  0.00    +0.000 C 
ATOM     18  OXT CYS A   1       2.479   8.345   4.756  0.00  0.00    +0.000 OA
BRANCH  17  19
ATOM     19  O   CYS A   1       1.584   7.809   2.779  0.00  0.00    +0.000 OA
ATOM     20  H   CYS A   1       1.472   7.065   2.164  0.00  0.00    +0.000 HD
ENDBRANCH  17  19
ENDBRANCH  13  17
ENDBRANCH  12  13
ENDBRANCH  11  12
ENDBRANCH   1  11
TORSDOF 11
