REMARK  Name = Cytarabine
REMARK  5 active torsions:
REMARK  status: ('A' for Active; 'I' for Inactive)
REMARK    1  A    between atoms: N1_6  and  C1*_9
REMARK    2  A    between atoms: C4*_11  and  C5*_12
REMARK    3  A    between atoms: C5*_12  and  O5*_13
REMARK    4  A    between atoms: C3*_14  and  O3*_15
REMARK    5  A    between atoms: C2*_16  and  O2*_17
REMARK                            x       y       z     vdW  Elec       q    Type
REMARK                         _______ _______ _______ _____ _____    ______ ____
ROOT
ATOM      1  C1*   C A   1       6.523  -0.098   0.219  0.00  0.00    +0.000 C 
ATOM      2  O4*   C A   1       7.058  -0.560  -1.040  0.00  0.00    +0.000 OA
ATOM      3  C4*   C A   1       7.759  -1.812  -0.814  0.00  0.00    +0.000 C 
ATOM      4  C3*   C A   1       7.380  -2.315   0.586  0.00  0.00    +0.000 C 
ATOM      5  C2*   C A   1       7.125  -0.997   1.313  0.00  0.00    +0.000 C 
ENDROOT
BRANCH   1  11
ATOM      6  N4    C A   1       0.994   0.015  -0.126  0.00  0.00    +0.000 N 
ATOM      7  C4    C A   1       2.351   0.015  -0.104  0.00  0.00    +0.000 A 
ATOM      8  N3    C A   1       2.924  -1.137  -0.014  0.00  0.00    +0.000 NA
ATOM      9  C2    C A   1       4.283  -1.201  -0.067  0.00  0.00    +0.000 A 
ATOM     10  O2    C A   1       4.788  -2.295  -0.291  0.00  0.00    +0.000 OA
ATOM     11  N1    C A   1       5.040  -0.050   0.172  0.00  0.00    +0.000 N 
ATOM     12  C6    C A   1       4.402   1.180   0.183  0.00  0.00    +0.000 A 
ATOM     13  C5    C A   1       3.110   1.276  -0.140  0.00  0.00    +0.000 A 
ATOM     14  H41   C A   1       0.528  -0.874   0.023  0.00  0.00    +0.000 HD
ATOM     15  H42   C A   1       0.440   0.855  -0.138  0.00  0.00    +0.000 HD
ENDBRANCH   1  11
BRANCH   4  16
ATOM     16  O3*   C A   1       8.328  -3.172   1.211  0.00  0.00    +0.000 OA
ATOM     17  H3*   C A   1       9.171  -2.719   1.338  0.00  0.00    +0.000 HD
ENDBRANCH   4  16
BRANCH   5  18
ATOM     18  O2*   C A   1       6.298  -1.091   2.465  0.00  0.00    +0.000 OA
ATOM     19  H2*   C A   1       5.433  -1.428   2.163  0.00  0.00    +0.000 HD
ENDBRANCH   5  18
BRANCH   3  20
ATOM     20  C5*   C A   1       7.436  -2.801  -1.941  0.00  0.00    +0.000 C 
BRANCH  20  21
ATOM     21  O5*   C A   1       8.121  -4.038  -1.798  0.00  0.00    +0.000 OA
ATOM     22  H5*   C A   1       9.071  -3.855  -1.727  0.00  0.00    +0.000 HD
ENDBRANCH  20  21
ENDBRANCH   3  20
TORSDOF 5
