REMARK  Name = D-glucose
REMARK  10 active torsions:
REMARK  status: ('A' for Active; 'I' for Inactive)
REMARK    1  A    between atoms: C_2  and  O_3
REMARK    2  A    between atoms: C_2  and  C_4
REMARK    3  A    between atoms: C_2  and  C_6
REMARK    4  A    between atoms: C_4  and  O_5
REMARK    5  A    between atoms: C_6  and  O_8
REMARK    6  A    between atoms: C_6  and  C_9
REMARK    7  A    between atoms: C_9  and  O_11
REMARK    8  A    between atoms: C_9  and  C_12
REMARK    9  A    between atoms: C_12  and  O_14
REMARK   10  A    between atoms: C_12  and  C_15
REMARK                            x       y       z     vdW  Elec       q    Type
REMARK                         _______ _______ _______ _____ _____    ______ ____
ROOT
ATOM      1  C   UNL     1       4.643   1.004   0.981  0.00  0.00    +0.000 C 
ENDROOT
BRANCH   1   2
ATOM      2  O   UNL     1       3.673   0.043   1.476  0.00  0.00    +0.000 OA
ATOM      3  H   UNL     1       3.895  -0.184   2.395  0.00  0.00    +0.000 HD
ENDBRANCH   1   2
BRANCH   1   4
ATOM      4  C   UNL     1       4.814   2.123   2.034  0.00  0.00    +0.000 C 
BRANCH   4   5
ATOM      5  O   UNL     1       3.581   2.860   2.115  0.00  0.00    +0.000 OA
ATOM      6  H   UNL     1       3.762   3.624   2.696  0.00  0.00    +0.000 HD
ENDBRANCH   4   5
BRANCH   4   7
ATOM      7  C   UNL     1       5.982   3.084   1.769  0.00  0.00    +0.000 C 
BRANCH   7   8
ATOM      8  O   UNL     1       6.012   4.100   2.761  0.00  0.00    +0.000 OA
ATOM      9  H   UNL     1       5.515   4.845   2.364  0.00  0.00    +0.000 HD
ENDBRANCH   7   8
ENDBRANCH   4   7
ENDBRANCH   1   4
BRANCH   1  10
ATOM     10  C   UNL     1       4.134   1.437  -0.434  0.00  0.00    +0.000 C 
BRANCH  10  11
ATOM     11  O   UNL     1       4.563   0.442  -1.388  0.00  0.00    +0.000 OA
ATOM     12  H   UNL     1       4.180   0.676  -2.253  0.00  0.00    +0.000 HD
ENDBRANCH  10  11
BRANCH  10  13
ATOM     13  C   UNL     1       4.571   2.815  -0.977  0.00  0.00    +0.000 C 
BRANCH  13  14
ATOM     14  O   UNL     1       3.959   3.893  -0.278  0.00  0.00    +0.000 OA
ATOM     15  H   UNL     1       3.264   3.542   0.322  0.00  0.00    +0.000 HD
ENDBRANCH  13  14
BRANCH  13  16
ATOM     16  C   UNL     1       6.119   2.817  -1.123  0.00  0.00    +0.000 C 
ATOM     17  O   UNL     1       6.801   3.803  -1.340  0.00  0.00    +0.000 OA
ENDBRANCH  13  16
ENDBRANCH  10  13
ENDBRANCH   1  10
TORSDOF 10
