REMARK  Name = D-Serine
REMARK  5 active torsions:
REMARK  status: ('A' for Active; 'I' for Inactive)
REMARK    1  A    between atoms: N_1  and  CA_2
REMARK    2  A    between atoms: CA_2  and  CB_3
REMARK    3  A    between atoms: CA_2  and  C_5
REMARK    4  A    between atoms: CB_3  and  OG_4
REMARK    5  A    between atoms: C_5  and  O_6
REMARK                            x       y       z     vdW  Elec       q    Type
REMARK                         _______ _______ _______ _____ _____    ______ ____
ROOT
ATOM      1  CA  SER A   1       2.500   0.009   0.078  0.00  0.00    +0.000 C 
ENDROOT
BRANCH   1   2
ATOM      2  N   SER A   1       3.033   0.494   1.374  0.00  0.00    +0.000 NA
ATOM      3  H1  SER A   1       4.053   0.412   1.357  0.00  0.00    +0.000 HD
ATOM      4  H2  SER A   1       2.722  -0.125   2.123  0.00  0.00    +0.000 HD
ENDBRANCH   1   2
BRANCH   1   5
ATOM      5  C   SER A   1       3.076  -1.387  -0.233  0.00  0.00    +0.000 C 
ATOM      6  OXT SER A   1       4.287  -1.598  -0.251  0.00  0.00    +0.000 OA
BRANCH   5   7
ATOM      7  O   SER A   1       2.208  -2.393  -0.460  0.00  0.00    +0.000 OA
ATOM      8  H   SER A   1       1.252  -2.223  -0.400  0.00  0.00    +0.000 HD
ENDBRANCH   5   7
ENDBRANCH   1   5
BRANCH   1   9
ATOM      9  CB  SER A   1       0.966   0.070   0.065  0.00  0.00    +0.000 C 
BRANCH   9  10
ATOM     10  OG  SER A   1       0.437   1.351   0.386  0.00  0.00    +0.000 OA
ATOM     11  H   SER A   1       0.943   2.021  -0.104  0.00  0.00    +0.000 HD
ENDBRANCH   9  10
ENDBRANCH   1   9
TORSDOF 5
