REMARK  Name = Dabigatran
REMARK  10 active torsions:
REMARK  status: ('A' for Active; 'I' for Inactive)
REMARK    1  A    between atoms: C_1  and  N_2
REMARK    2  A    between atoms: C_3  and  C_4
REMARK    3  A    between atoms: C_4  and  N_5
REMARK    4  A    between atoms: N_5  and  C_6
REMARK    5  A    between atoms: C_9  and  C_12
REMARK    6  A    between atoms: C_20  and  C_22
REMARK    7  A    between atoms: N_24  and  C_25
REMARK    8  A    between atoms: C_25  and  C_26
REMARK    9  A    between atoms: C_26  and  C_27
REMARK   10  A    between atoms: C_27  and  O_28
REMARK                            x       y       z     vdW  Elec       q    Type
REMARK                         _______ _______ _______ _____ _____    ______ ____
ROOT
ATOM      1  C   UNL     1      -2.341   1.556  -0.053  0.00  0.00    +0.000 C 
ATOM      2  N   UNL     1      -1.723   0.232  -0.003  0.00  0.00    +0.000 N 
ATOM      3  C   UNL     1      -2.070  -1.085  -0.020  0.00  0.00    +0.000 A 
ATOM      4  N   UNL     1      -1.017  -1.907   0.003  0.00  0.00    +0.000 NA
ATOM      5  C   UNL     1       0.091  -1.119   0.017  0.00  0.00    +0.000 A 
ATOM      6  C   UNL     1      -0.377   0.178   0.045  0.00  0.00    +0.000 A 
ATOM      7  C   UNL     1       0.389   1.245   0.068  0.00  0.00    +0.000 A 
ATOM      8  C   UNL     1       1.690   0.892  -0.030  0.00  0.00    +0.000 A 
ATOM      9  C   UNL     1       2.397  -0.283  -0.006  0.00  0.00    +0.000 A 
ATOM     10  C   UNL     1       1.510  -1.373   0.011  0.00  0.00    +0.000 A 
ENDROOT
BRANCH   9  11
ATOM     11  C   UNL     1       3.950  -0.392  -0.015  0.00  0.00    +0.000 C 
ATOM     12  O   UNL     1       4.329  -1.574  -0.010  0.00  0.00    +0.000 OA
ATOM     13  N   UNL     1       4.945   0.681   0.029  0.00  0.00    +0.000 N 
ATOM     14  C   UNL     1       6.347   0.331   0.060  0.00  0.00    +0.000 A 
ATOM     15  N   UNL     1       7.155   1.101   0.845  0.00  0.00    +0.000 NA
ATOM     16  C   UNL     1       8.476   0.828   0.874  0.00  0.00    +0.000 A 
ATOM     17  C   UNL     1       9.066  -0.139   0.088  0.00  0.00    +0.000 A 
ATOM     18  C   UNL     1       8.251  -0.856  -0.779  0.00  0.00    +0.000 A 
ATOM     19  C   UNL     1       6.875  -0.624  -0.792  0.00  0.00    +0.000 A 
BRANCH  13  20
ATOM     20  C   UNL     1       4.899   2.203   0.075  0.00  0.00    +0.000 C 
BRANCH  20  21
ATOM     21  C   UNL     1       3.553   2.729   0.038  0.00  0.00    +0.000 C 
BRANCH  21  22
ATOM     22  C   UNL     1       2.842   4.048   0.024  0.00  0.00    +0.000 C 
ATOM     23  O   UNL     1       1.634   4.148  -0.004  0.00  0.00    +0.000 OA
BRANCH  22  24
ATOM     24  O   UNL     1       3.672   5.089   0.019  0.00  0.00    +0.000 OA
ATOM     25  H   UNL     1       4.588   4.774   0.042  0.00  0.00    +0.000 HD
ENDBRANCH  22  24
ENDBRANCH  21  22
ENDBRANCH  20  21
ENDBRANCH  13  20
ENDBRANCH   9  11
BRANCH   3  26
ATOM     26  C   UNL     1      -3.456  -1.562  -0.056  0.00  0.00    +0.000 C 
BRANCH  26  27
ATOM     27  N   UNL     1      -4.397  -0.491  -0.284  0.00  0.00    +0.000 N 
ATOM     28  H   UNL     1      -4.215   0.251   0.376  0.00  0.00    +0.000 HD
BRANCH  27  29
ATOM     29  C   UNL     1      -5.746  -0.703  -0.109  0.00  0.00    +0.000 A 
ATOM     30  C   UNL     1      -6.571   0.191  -0.782  0.00  0.00    +0.000 A 
ATOM     31  C   UNL     1      -7.937   0.147  -0.597  0.00  0.00    +0.000 A 
ATOM     32  C   UNL     1      -8.491  -0.831   0.235  0.00  0.00    +0.000 A 
ATOM     33  C   UNL     1      -7.646  -1.648   0.998  0.00  0.00    +0.000 A 
ATOM     34  C   UNL     1      -6.271  -1.559   0.848  0.00  0.00    +0.000 A 
BRANCH  32  35
ATOM     35  C   UNL     1      -9.968  -1.026   0.241  0.00  0.00    +0.000 C 
ATOM     36  N   UNL     1     -10.782  -0.234  -0.503  0.00  0.00    +0.000 N 
ATOM     37  N   UNL     1     -10.561  -1.959   0.918  0.00  0.00    +0.000 NA
ATOM     38  H   UNL     1     -10.458   0.422  -1.195  0.00  0.00    +0.000 HD
ATOM     39  H   UNL     1     -11.753  -0.512  -0.546  0.00  0.00    +0.000 HD
ATOM     40  H   UNL     1      -9.906  -2.533   1.448  0.00  0.00    +0.000 HD
ENDBRANCH  32  35
ENDBRANCH  27  29
ENDBRANCH  26  27
ENDBRANCH   3  26
TORSDOF 9
