REMARK  Name = Dabrafenib
REMARK  9 active torsions:
REMARK  status: ('A' for Active; 'I' for Inactive)
REMARK    1  A    between atoms: C_1  and  C_2
REMARK    2  A    between atoms: C_2  and  C_3
REMARK    3  A    between atoms: C_2  and  C_4
REMARK    4  A    between atoms: C_2  and  C_5
REMARK    5  A    between atoms: C_7  and  C_17
REMARK    6  A    between atoms: C_8  and  C_10
REMARK    7  A    between atoms: C_20  and  N_21
REMARK    8  A    between atoms: N_21  and  S_22
REMARK    9  A    between atoms: S_22  and  C_25
REMARK                            x       y       z     vdW  Elec       q    Type
REMARK                         _______ _______ _______ _____ _____    ______ ____
ROOT
ATOM      1  C   UNL     1       2.599  -5.002  -0.244  0.00  0.00    +0.000 A 
ATOM      2  C   UNL     1       1.243  -5.221  -0.472  0.00  0.00    +0.000 A 
ATOM      3  F   UNL     1       0.538  -4.195  -0.968  0.00  0.00    +0.000 F 
ATOM      4  C   UNL     1       0.643  -6.461  -0.233  0.00  0.00    +0.000 A 
ATOM      5  C   UNL     1       1.458  -7.494   0.261  0.00  0.00    +0.000 A 
ATOM      6  C   UNL     1       2.829  -7.281   0.493  0.00  0.00    +0.000 A 
ATOM      7  C   UNL     1       3.401  -6.033   0.244  0.00  0.00    +0.000 A 
ENDROOT
BRANCH   1  10
ATOM      8  C   UNL     1       3.098  -1.475  -0.472  0.00  0.00    +0.000 A 
ATOM      9  N   UNL     1       2.600  -2.572   0.057  0.00  0.00    +0.000 NA
ATOM     10  C   UNL     1       3.114  -3.692  -0.566  0.00  0.00    +0.000 A 
ATOM     11  C   UNL     1       4.075  -3.460  -1.529  0.00  0.00    +0.000 A 
ATOM     12  S   UNL     1       4.316  -1.764  -1.665  0.00  0.00    +0.000 S 
BRANCH  11  13
ATOM     13  C   UNL     1       4.870  -4.415  -2.294  0.00  0.00    +0.000 A 
ATOM     14  N   UNL     1       4.197  -5.260  -3.105  0.00  0.00    +0.000 NA
ATOM     15  C   UNL     1       4.911  -6.239  -3.672  0.00  0.00    +0.000 A 
ATOM     16  N   UNL     1       4.271  -7.134  -4.482  0.00  0.00    +0.000 N 
ATOM     17  N   UNL     1       6.220  -6.435  -3.476  0.00  0.00    +0.000 NA
ATOM     18  C   UNL     1       6.845  -5.578  -2.651  0.00  0.00    +0.000 A 
ATOM     19  C   UNL     1       6.214  -4.536  -2.028  0.00  0.00    +0.000 A 
ATOM     20  H   UNL     1       3.314  -6.945  -4.725  0.00  0.00    +0.000 HD
ATOM     21  H   UNL     1       4.845  -7.789  -4.985  0.00  0.00    +0.000 HD
ENDBRANCH  11  13
BRANCH   8  23
ATOM     22  C   UNL     1       1.090  -0.055  -0.022  0.00  0.00    +0.000 C 
ATOM     23  C   UNL     1       2.634  -0.083  -0.040  0.00  0.00    +0.000 C 
ATOM     24  C   UNL     1       3.120   1.040  -0.971  0.00  0.00    +0.000 C 
ATOM     25  C   UNL     1       3.135   0.208   1.387  0.00  0.00    +0.000 C 
ENDBRANCH   8  23
ENDBRANCH   1  10
BRANCH   4  26
ATOM     26  N   UNL     1      -0.765  -6.707  -0.435  0.00  0.00    +0.000 N 
ATOM     27  H   UNL     1      -1.135  -7.649  -0.340  0.00  0.00    +0.000 HD
BRANCH  26  28
ATOM     28  S   UNL     1      -1.764  -5.491  -1.069  0.00  0.00    +0.000 S 
ATOM     29  O   UNL     1      -1.863  -4.471  -0.051  0.00  0.00    +0.000 OA
ATOM     30  O   UNL     1      -1.331  -5.221  -2.429  0.00  0.00    +0.000 OA
BRANCH  28  31
ATOM     31  C   UNL     1      -3.370  -6.145  -1.243  0.00  0.00    +0.000 A 
ATOM     32  C   UNL     1      -3.604  -7.505  -1.282  0.00  0.00    +0.000 A 
ATOM     33  F   UNL     1      -2.605  -8.388  -1.155  0.00  0.00    +0.000 F 
ATOM     34  C   UNL     1      -4.899  -7.990  -1.457  0.00  0.00    +0.000 A 
ATOM     35  C   UNL     1      -5.968  -7.103  -1.600  0.00  0.00    +0.000 A 
ATOM     36  C   UNL     1      -5.734  -5.730  -1.562  0.00  0.00    +0.000 A 
ATOM     37  C   UNL     1      -4.435  -5.257  -1.385  0.00  0.00    +0.000 A 
ATOM     38  F   UNL     1      -4.248  -3.930  -1.376  0.00  0.00    +0.000 F 
ENDBRANCH  28  31
ENDBRANCH  26  28
ENDBRANCH   4  26
TORSDOF 6
