REMARK  Name = Dacarbazine
REMARK  5 active torsions:
REMARK  status: ('A' for Active; 'I' for Inactive)
REMARK    1  A    between atoms: C_1  and  N_2
REMARK    2  A    between atoms: N_2  and  C_3
REMARK    3  A    between atoms: N_2  and  N_4
REMARK    4  A    between atoms: N_5  and  C_6
REMARK    5  A    between atoms: C_7  and  C_11
REMARK                            x       y       z     vdW  Elec       q    Type
REMARK                         _______ _______ _______ _____ _____    ______ ____
ROOT
ATOM      1  C   UNL     1       5.039  -1.799  -1.631  0.00  0.00    +0.000 A 
ATOM      2  C   UNL     1       4.899  -2.143  -2.978  0.00  0.00    +0.000 A 
ATOM      3  N   UNL     1       5.795  -3.158  -3.307  0.00  0.00    +0.000 NA
ATOM      4  C   UNL     1       6.475  -3.405  -2.217  0.00  0.00    +0.000 A 
ATOM      5  N   UNL     1       6.081  -2.590  -1.196  0.00  0.00    +0.000 N 
ATOM      6  H   UNL     1       6.471  -2.590  -0.265  0.00  0.00    +0.000 HD
ENDROOT
BRANCH   2   7
ATOM      7  C   UNL     1       3.983  -1.568  -3.968  0.00  0.00    +0.000 C 
ATOM      8  N   UNL     1       3.234  -0.499  -3.560  0.00  0.00    +0.000 N 
ATOM      9  O   UNL     1       3.865  -1.984  -5.120  0.00  0.00    +0.000 OA
ATOM     10  H   UNL     1       3.227  -0.202  -2.590  0.00  0.00    +0.000 HD
ATOM     11  H   UNL     1       2.531  -0.144  -4.189  0.00  0.00    +0.000 HD
ENDBRANCH   2   7
BRANCH   1  13
ATOM     12  N   UNL     1       3.186  -0.950  -0.806  0.00  0.00    +0.000 NA
ATOM     13  N   UNL     1       4.438  -0.913  -0.784  0.00  0.00    +0.000 NA
BRANCH  12  15
ATOM     14  C   UNL     1       1.098   0.030  -0.098  0.00  0.00    +0.000 C 
ATOM     15  N   UNL     1       2.554   0.037  -0.092  0.00  0.00    +0.000 N 
ATOM     16  C   UNL     1       3.260   1.001   0.732  0.00  0.00    +0.000 C 
ENDBRANCH  12  15
ENDBRANCH   1  13
TORSDOF 3
