REMARK  Name = Dalfopristin
REMARK  14 active torsions:
REMARK  status: ('A' for Active; 'I' for Inactive)
REMARK    1  A    between atoms: C_1  and  C_2
REMARK    2  A    between atoms: C_2  and  N_3
REMARK    3  A    between atoms: N_3  and  C_4
REMARK    4  A    between atoms: N_3  and  C_6
REMARK    5  A    between atoms: C_4  and  C_5
REMARK    6  A    between atoms: C_6  and  C_7
REMARK    7  A    between atoms: C_7  and  S_8
REMARK    8  A    between atoms: S_8  and  C_11
REMARK    9  A    between atoms: C_19  and  C_20
REMARK   10  A    between atoms: C_20  and  C_21
REMARK   11  A    between atoms: C_20  and  C_22
REMARK   12  A    between atoms: C_23  and  C_24
REMARK   13  A    between atoms: C_33  and  C_34
REMARK   14  A    between atoms: C_36  and  O_37
REMARK                            x       y       z     vdW  Elec       q    Type
REMARK                         _______ _______ _______ _____ _____    ______ ____
ROOT
ATOM      1  C   UNL     1       7.364  -4.573   1.553  0.00  0.00    +0.000 C 
ATOM      2  C   UNL     1       8.291  -4.462   2.649  0.00  0.00    +0.000 C 
ATOM      3  C   UNL     1       7.463  -6.995   1.811  0.00  0.00    +0.000 C 
ATOM      4  N   UNL     1       5.316  -9.719   1.063  0.00  0.00    +0.000 N 
ATOM      5  C   UNL     1       6.782  -7.057   0.707  0.00  0.00    +0.000 C 
ATOM      6  C   UNL     1       8.429  -6.926   0.634  0.00  0.00    +0.000 C 
ATOM      7  O   UNL     1       8.974  -6.831   2.260  0.00  0.00    +0.000 OA
ATOM      8  O   UNL     1       6.591  -7.406   1.089  0.00  0.00    +0.000 OA
ATOM      9  C   UNL     1       7.237  -8.829   1.485  0.00  0.00    +0.000 C 
ATOM     10  C   UNL     1       5.259  -9.625   2.251  0.00  0.00    +0.000 C 
ATOM     11  C   UNL     1       4.796  -8.484   2.203  0.00  0.00    +0.000 C 
ATOM     12  C   UNL     1       5.902 -10.898   1.668  0.00  0.00    +0.000 C 
ATOM     13  C   UNL     1       4.797 -11.536   1.781  0.00  0.00    +0.000 C 
ATOM     14  C   UNL     1       4.814 -12.992   1.883  0.00  0.00    +0.000 C 
ATOM     15  O   UNL     1       5.261 -13.068   3.004  0.00  0.00    +0.000 OA
ATOM     16  N   UNL     1       3.573 -13.875   1.847  0.00  0.00    +0.000 N 
ATOM     17  C   UNL     1       3.607 -15.211   2.127  0.00  0.00    +0.000 C 
ATOM     18  C   UNL     1       2.347 -15.821   2.085  0.00  0.00    +0.000 C 
ATOM     19  C   UNL     1       2.026 -17.136   2.300  0.00  0.00    +0.000 C 
ATOM     20  C   UNL     1       0.701 -17.748   2.246  0.00  0.00    +0.000 C 
ATOM     21  C   UNL     1      -0.628 -16.600   1.889  0.00  0.00    +0.000 C 
ATOM     22  C   UNL     1       0.524 -19.053   2.476  0.00  0.00    +0.000 C 
ATOM     23  C   UNL     1      -0.600 -19.738   2.602  0.00  0.00    +0.000 C 
ATOM     24  C   UNL     1      -0.784 -21.173   2.746  0.00  0.00    +0.000 C 
ATOM     25  C   UNL     1      -2.167 -21.747   2.587  0.00  0.00    +0.000 C 
ATOM     26  O   UNL     1      -2.582 -21.387   0.951  0.00  0.00    +0.000 OA
ATOM     27  C   UNL     1      -2.481 -22.949   2.812  0.00  0.00    +0.000 C 
ATOM     28  C   UNL     1      -1.953 -20.374   2.146  0.00  0.00    +0.000 A 
ATOM     29  N   UNL     1      -0.721 -18.086   1.789  0.00  0.00    +0.000 NA
ATOM     30  C   UNL     1       0.858 -15.479   1.435  0.00  0.00    +0.000 A 
ATOM     31  C   UNL     1      -1.088 -17.772   1.866  0.00  0.00    +0.000 A 
ATOM     32  O   UNL     1      -2.801 -19.782   2.411  0.00  0.00    +0.000 OA
ATOM     33  C   UNL     1       3.227 -12.444   1.141  0.00  0.00    +0.000 C 
ATOM     34  O   UNL     1       4.500 -11.241   0.315  0.00  0.00    +0.000 OA
ATOM     35  H   UNL     1       2.614 -13.459   1.616  0.00  0.00    +0.000 HD
ENDROOT
BRANCH   1  36
ATOM     36  S   UNL     1       6.850  -2.640   1.006  0.00  0.00    +0.000 S 
ATOM     37  O   UNL     1       7.335  -2.482  -0.395  0.00  0.00    +0.000 OA
ATOM     38  O   UNL     1       7.334  -1.519   1.886  0.00  0.00    +0.000 OA
BRANCH  36  39
ATOM     39  C   UNL     1       5.030  -2.648   1.021  0.00  0.00    +0.000 C 
BRANCH  39  40
ATOM     40  C   UNL     1       4.516  -1.335   0.466  0.00  0.00    +0.000 C 
BRANCH  40  41
ATOM     41  N   UNL     1       3.048  -1.332   0.464  0.00  0.00    +0.000 NA
BRANCH  41  43
ATOM     42  C   UNL     1       1.055  -0.015  -0.051  0.00  0.00    +0.000 C 
ATOM     43  C   UNL     1       2.557  -0.057  -0.073  0.00  0.00    +0.000 C 
ENDBRANCH  41  43
BRANCH  41  44
ATOM     44  C   UNL     1       2.554  -2.434  -0.370  0.00  0.00    +0.000 C 
ATOM     45  C   UNL     1       1.055  -2.481  -0.359  0.00  0.00    +0.000 C 
ENDBRANCH  41  44
ENDBRANCH  40  41
ENDBRANCH  39  40
ENDBRANCH  36  39
ENDBRANCH   1  36
BRANCH   9  46
ATOM     46  C   UNL     1       8.116  -9.374   0.291  0.00  0.00    +0.000 C 
ATOM     47  C   UNL     1       8.528 -10.698   0.863  0.00  0.00    +0.000 C 
ATOM     48  C   UNL     1       9.338  -8.496   0.142  0.00  0.00    +0.000 C 
ENDBRANCH   9  46
BRANCH  23  49
ATOM     49  O   UNL     1      -1.320 -19.457   0.667  0.00  0.00    +0.000 OA
ATOM     50  H   UNL     1      -0.806 -20.001   0.370  0.00  0.00    +0.000 HD
ENDBRANCH  23  49
TORSDOF 8
