REMARK  Name = Dalfampridine
REMARK  1 active torsions:
REMARK  status: ('A' for Active; 'I' for Inactive)
REMARK    1  A    between atoms: N_1  and  C_2
REMARK                            x       y       z     vdW  Elec       q    Type
REMARK                         _______ _______ _______ _____ _____    ______ ____
ROOT
ATOM      1  C   UNL     1       0.997   0.003   0.010  0.00  0.00    +0.000 A 
ATOM      2  C   UNL     1       0.287  -1.195   0.000  0.00  0.00    +0.000 A 
ATOM      3  C   UNL     1      -1.100  -1.148   0.002  0.00  0.00    +0.000 A 
ATOM      4  N   UNL     1      -1.815  -0.004   0.004  0.00  0.00    +0.000 NA
ATOM      5  C   UNL     1      -1.105   1.144   0.002  0.00  0.00    +0.000 A 
ATOM      6  C   UNL     1       0.281   1.195   0.001  0.00  0.00    +0.000 A 
ENDROOT
BRANCH   1   7
ATOM      7  N   UNL     1       2.380   0.006  -0.043  0.00  0.00    +0.000 N 
ATOM      8  H   UNL     1       2.900  -0.857   0.020  0.00  0.00    +0.000 HD
ATOM      9  H   UNL     1       2.892   0.877   0.024  0.00  0.00    +0.000 HD
ENDBRANCH   1   7
TORSDOF 1
