REMARK  Name = Danazol
REMARK  4 active torsions:
REMARK  status: ('A' for Active; 'I' for Inactive)
REMARK    1  A    between atoms: C_5  and  O_6
REMARK    2  A    between atoms: C_5  and  C_7
REMARK    3  A    between atoms: C_9  and  C_10
REMARK    4  A    between atoms: C_24  and  C_25
REMARK                            x       y       z     vdW  Elec       q    Type
REMARK                         _______ _______ _______ _____ _____    ______ ____
ROOT
ATOM      1  C   UNL     1       1.811  -0.046  -0.326  0.00  0.00    +0.000 C 
ATOM      2  C   UNL     1       2.229  -0.070  -1.678  0.00  0.00    +0.000 C 
ATOM      3  C   UNL     1       3.262  -0.399  -0.666  0.00  0.00    +0.000 C 
ATOM      4  C   UNL     1       2.506  -0.886   1.213  0.00  0.00    +0.000 C 
ATOM      5  C   UNL     1       2.705  -1.657   0.099  0.00  0.00    +0.000 C 
ATOM      6  C   UNL     1       2.040  -2.907  -0.289  0.00  0.00    +0.000 C 
ATOM      7  C   UNL     1       4.483  -1.626   0.624  0.00  0.00    +0.000 C 
ATOM      8  C   UNL     1       4.829  -0.159   1.401  0.00  0.00    +0.000 C 
ATOM      9  C   UNL     1       4.231   1.281   0.837  0.00  0.00    +0.000 C 
ATOM     10  C   UNL     1       2.552   1.339   0.614  0.00  0.00    +0.000 C 
ATOM     11  C   UNL     1       2.097   2.590  -0.081  0.00  0.00    +0.000 C 
ATOM     12  C   UNL     1       2.673   3.822   0.569  0.00  0.00    +0.000 C 
ATOM     13  C   UNL     1       4.171   3.773   0.756  0.00  0.00    +0.000 C 
ATOM     14  C   UNL     1       4.931   4.789   0.298  0.00  0.00    +0.000 C 
ATOM     15  C   UNL     1       6.323   4.702   0.475  0.00  0.00    +0.000 A 
ATOM     16  C   UNL     1       7.017   3.539   0.676  0.00  0.00    +0.000 A 
ATOM     17  C   UNL     1       6.356   2.455   1.437  0.00  0.00    +0.000 C 
ATOM     18  C   UNL     1       4.763   2.543   1.511  0.00  0.00    +0.000 C 
ATOM     19  C   UNL     1       4.230   2.521   2.945  0.00  0.00    +0.000 C 
ATOM     20  C   UNL     1       8.365   3.902   0.527  0.00  0.00    +0.000 A 
ATOM     21  N   UNL     1       8.489   5.191   0.866  0.00  0.00    +0.000 NA
ATOM     22  O   UNL     1       7.194   5.701   0.829  0.00  0.00    +0.000 OA
ENDROOT
BRANCH   4  23
ATOM     23  O   UNL     1       2.780  -1.971   2.168  0.00  0.00    +0.000 OA
ATOM     24  H   UNL     1       3.625  -2.053   2.623  0.00  0.00    +0.000 HD
ENDBRANCH   4  23
BRANCH   4  25
ATOM     25  C   UNL     1       0.939  -0.926   1.603  0.00  0.00    +0.000 C 
ATOM     26  C   UNL     1      -0.241  -1.104   1.894  0.00  0.00    +0.000 C 
ENDBRANCH   4  25
TORSDOF 2
