REMARK  Name = Dantron
REMARK  2 active torsions:
REMARK  status: ('A' for Active; 'I' for Inactive)
REMARK    1  A    between atoms: O_1  and  C_2
REMARK    2  A    between atoms: C_15  and  O_16
REMARK                            x       y       z     vdW  Elec       q    Type
REMARK                         _______ _______ _______ _____ _____    ______ ____
ROOT
ATOM      1  C   UNL     1       2.525  -1.018  -0.012  0.00  0.00    +0.000 A 
ATOM      2  C   UNL     1       3.722  -0.299   0.004  0.00  0.00    +0.000 A 
ATOM      3  C   UNL     1       3.697   1.093   0.024  0.00  0.00    +0.000 A 
ATOM      4  C   UNL     1       2.476   1.764   0.028  0.00  0.00    +0.000 A 
ATOM      5  C   UNL     1       1.273   1.041   0.009  0.00  0.00    +0.000 A 
ATOM      6  C   UNL     1       1.286  -0.355  -0.007  0.00  0.00    +0.000 A 
ATOM      7  C   UNL     1       0.002  -1.103  -0.010  0.00  0.00    +0.000 C 
ATOM      8  O   UNL     1       0.002  -2.327  -0.028  0.00  0.00    +0.000 OA
ATOM      9  C   UNL     1      -1.283  -0.358   0.000  0.00  0.00    +0.000 A 
ATOM     10  C   UNL     1      -1.272   1.038  -0.015  0.00  0.00    +0.000 A 
ATOM     11  C   UNL     1      -2.475   1.760  -0.038  0.00  0.00    +0.000 A 
ATOM     12  C   UNL     1      -3.695   1.087  -0.043  0.00  0.00    +0.000 A 
ATOM     13  C   UNL     1      -3.719  -0.304  -0.011  0.00  0.00    +0.000 A 
ATOM     14  C   UNL     1      -2.522  -1.022   0.017  0.00  0.00    +0.000 A 
ATOM     15  C   UNL     1      -0.000   1.783   0.006  0.00  0.00    +0.000 C 
ATOM     16  O   UNL     1      -0.002   3.009   0.025  0.00  0.00    +0.000 OA
ENDROOT
BRANCH   1  17
ATOM     17  O   UNL     1       2.592  -2.382  -0.031  0.00  0.00    +0.000 OA
ATOM     18  H   UNL     1       3.510  -2.691  -0.022  0.00  0.00    +0.000 HD
ENDBRANCH   1  17
BRANCH  14  19
ATOM     19  O   UNL     1      -2.589  -2.385   0.071  0.00  0.00    +0.000 OA
ATOM     20  H   UNL     1      -3.507  -2.692   0.090  0.00  0.00    +0.000 HD
ENDBRANCH  14  19
TORSDOF 2
