REMARK  Name = Dantrolene
REMARK  4 active torsions:
REMARK  status: ('A' for Active; 'I' for Inactive)
REMARK    1  A    between atoms: N_2  and  C_4
REMARK    2  A    between atoms: C_7  and  C_10
REMARK    3  A    between atoms: C_13  and  C_15
REMARK    4  A    between atoms: N_16  and  N_17
REMARK                            x       y       z     vdW  Elec       q    Type
REMARK                         _______ _______ _______ _____ _____    ______ ____
ROOT
ATOM      1  C   UNL     1       5.229  -1.699  -4.689  0.00  0.00    +0.000 A 
ATOM      2  C   UNL     1       5.885  -0.964  -5.652  0.00  0.00    +0.000 A 
ATOM      3  C   UNL     1       6.300  -1.868  -6.650  0.00  0.00    +0.000 A 
ATOM      4  C   UNL     1       5.895  -3.132  -6.265  0.00  0.00    +0.000 A 
ATOM      5  O   UNL     1       5.241  -3.037  -5.043  0.00  0.00    +0.000 OA
ENDROOT
BRANCH   1   9
ATOM      6  C   UNL     1       3.054  -0.421  -1.228  0.00  0.00    +0.000 A 
ATOM      7  C   UNL     1       4.154  -1.270  -1.069  0.00  0.00    +0.000 A 
ATOM      8  C   UNL     1       4.897  -1.661  -2.198  0.00  0.00    +0.000 A 
ATOM      9  C   UNL     1       4.500  -1.277  -3.488  0.00  0.00    +0.000 A 
ATOM     10  C   UNL     1       3.411  -0.389  -3.612  0.00  0.00    +0.000 A 
ATOM     11  C   UNL     1       2.680   0.036  -2.492  0.00  0.00    +0.000 A 
BRANCH   6  13
ATOM     12  O   UNL     1       1.080   0.071  -0.135  0.00  0.00    +0.000 OA
ATOM     13  N   UNL     1       2.316   0.041  -0.056  0.00  0.00    +0.000 N 
ATOM     14  O   UNL     1       2.980   0.387   0.931  0.00  0.00    +0.000 OA
ENDBRANCH   6  13
ENDBRANCH   1   9
BRANCH   4  15
ATOM     15  C   UNL     1       6.068  -4.396  -6.965  0.00  0.00    +0.000 C 
ATOM     16  N   UNL     1       6.792  -4.430  -8.054  0.00  0.00    +0.000 NA
BRANCH  16  17
ATOM     17  N   UNL     1       6.895  -5.611  -8.754  0.00  0.00    +0.000 N 
ATOM     18  C   UNL     1       8.049  -5.895  -9.585  0.00  0.00    +0.000 C 
ATOM     19  C   UNL     1       7.599  -7.185 -10.250  0.00  0.00    +0.000 C 
ATOM     20  O   UNL     1       8.246  -7.843 -11.050  0.00  0.00    +0.000 OA
ATOM     21  N   UNL     1       6.351  -7.498  -9.815  0.00  0.00    +0.000 N 
ATOM     22  C   UNL     1       5.875  -6.547  -8.967  0.00  0.00    +0.000 C 
ATOM     23  O   UNL     1       4.740  -6.540  -8.505  0.00  0.00    +0.000 OA
ATOM     24  H   UNL     1       5.822  -8.295 -10.128  0.00  0.00    +0.000 HD
ENDBRANCH  16  17
ENDBRANCH   4  15
TORSDOF 4
