REMARK  Name = Dapiprazole
REMARK  5 active torsions:
REMARK  status: ('A' for Active; 'I' for Inactive)
REMARK    1  A    between atoms: C_1  and  C_2
REMARK    2  A    between atoms: C_7  and  N_8
REMARK    3  A    between atoms: N_11  and  C_12
REMARK    4  A    between atoms: C_12  and  C_13
REMARK    5  A    between atoms: C_13  and  C_14
REMARK                            x       y       z     vdW  Elec       q    Type
REMARK                         _______ _______ _______ _____ _____    ______ ____
ROOT
ATOM      1  N   UNL     1       1.031   2.429  -0.059  0.00  0.00    +0.000 N 
ATOM      2  C   UNL     1       0.807   3.617   0.776  0.00  0.00    +0.000 C 
ATOM      3  C   UNL     1       2.198   4.207   1.183  0.00  0.00    +0.000 C 
ATOM      4  N   UNL     1       3.146   4.439   0.047  0.00  0.00    +0.000 NA
ATOM      5  C   UNL     1       3.259   3.158  -0.700  0.00  0.00    +0.000 C 
ATOM      6  C   UNL     1       1.899   2.643  -1.214  0.00  0.00    +0.000 C 
ENDROOT
BRANCH   1  13
ATOM      7  C   UNL     1       2.501  -0.107   0.052  0.00  0.00    +0.000 C 
ATOM      8  C   UNL     1       0.996  -0.002   0.011  0.00  0.00    +0.000 A 
ATOM      9  C   UNL     1       0.262  -1.198   0.005  0.00  0.00    +0.000 A 
ATOM     10  C   UNL     1      -1.128  -1.177   0.004  0.00  0.00    +0.000 A 
ATOM     11  C   UNL     1      -1.797   0.042   0.023  0.00  0.00    +0.000 A 
ATOM     12  C   UNL     1      -1.076   1.242   0.045  0.00  0.00    +0.000 A 
ATOM     13  C   UNL     1       0.326   1.249   0.016  0.00  0.00    +0.000 A 
ENDBRANCH   1  13
BRANCH   4  14
ATOM     14  C   UNL     1       2.666   5.546  -0.810  0.00  0.00    +0.000 C 
BRANCH  14  15
ATOM     15  C   UNL     1       3.588   5.824  -2.007  0.00  0.00    +0.000 C 
BRANCH  15  16
ATOM     16  C   UNL     1       2.999   6.806  -2.954  0.00  0.00    +0.000 A 
ATOM     17  N   UNL     1       3.216   8.106  -3.021  0.00  0.00    +0.000 NA
ATOM     18  N   UNL     1       2.511   8.606  -4.099  0.00  0.00    +0.000 NA
ATOM     19  C   UNL     1       1.868   7.603  -4.665  0.00  0.00    +0.000 A 
ATOM     20  C   UNL     1       1.017   7.596  -5.888  0.00  0.00    +0.000 C 
ATOM     21  C   UNL     1       0.202   6.298  -5.999  0.00  0.00    +0.000 C 
ATOM     22  C   UNL     1       1.078   5.083  -5.691  0.00  0.00    +0.000 C 
ATOM     23  C   UNL     1       1.575   5.169  -4.255  0.00  0.00    +0.000 C 
ATOM     24  N   UNL     1       2.146   6.466  -3.963  0.00  0.00    +0.000 N 
ENDBRANCH  15  16
ENDBRANCH  14  15
ENDBRANCH   4  14
TORSDOF 4
