REMARK  Name = Dapsone
REMARK  4 active torsions:
REMARK  status: ('A' for Active; 'I' for Inactive)
REMARK    1  A    between atoms: N_1  and  C_2
REMARK    2  A    between atoms: C_5  and  S_8
REMARK    3  A    between atoms: S_8  and  C_11
REMARK    4  A    between atoms: C_14  and  N_15
REMARK                            x       y       z     vdW  Elec       q    Type
REMARK                         _______ _______ _______ _____ _____    ______ ____
ROOT
ATOM      1  S   UNL     1      -3.648  -0.006   0.008  0.00  0.00    +0.000 S 
ATOM      2  O   UNL     1      -4.056  -0.586  -1.263  0.00  0.00    +0.000 OA
ATOM      3  O   UNL     1      -4.043  -0.614   1.261  0.00  0.00    +0.000 OA
ENDROOT
BRANCH   1   7
ATOM      4  C   UNL     1       0.942  -0.011   0.014  0.00  0.00    +0.000 A 
ATOM      5  C   UNL     1       0.219  -1.208  -0.002  0.00  0.00    +0.000 A 
ATOM      6  C   UNL     1      -1.182  -1.204  -0.001  0.00  0.00    +0.000 A 
ATOM      7  C   UNL     1      -1.866   0.015   0.015  0.00  0.00    +0.000 A 
ATOM      8  C   UNL     1      -1.154   1.214   0.033  0.00  0.00    +0.000 A 
ATOM      9  C   UNL     1       0.241   1.195   0.006  0.00  0.00    +0.000 A 
BRANCH   4  10
ATOM     10  N   UNL     1       2.323  -0.012  -0.081  0.00  0.00    +0.000 N 
ATOM     11  H   UNL     1       2.836  -0.875   0.040  0.00  0.00    +0.000 HD
ATOM     12  H   UNL     1       2.834   0.855   0.027  0.00  0.00    +0.000 HD
ENDBRANCH   4  10
ENDBRANCH   1   7
BRANCH   1  13
ATOM     13  C   UNL     1      -4.275   1.665   0.009  0.00  0.00    +0.000 A 
ATOM     14  C   UNL     1      -3.960   2.522  -1.051  0.00  0.00    +0.000 A 
ATOM     15  C   UNL     1      -4.395   3.850  -1.018  0.00  0.00    +0.000 A 
ATOM     16  C   UNL     1      -5.207   4.315   0.022  0.00  0.00    +0.000 A 
ATOM     17  C   UNL     1      -5.514   3.442   1.072  0.00  0.00    +0.000 A 
ATOM     18  C   UNL     1      -5.058   2.119   1.070  0.00  0.00    +0.000 A 
BRANCH  16  19
ATOM     19  N   UNL     1      -5.520   5.668   0.117  0.00  0.00    +0.000 N 
ATOM     20  H   UNL     1      -5.464   6.223  -0.730  0.00  0.00    +0.000 HD
ATOM     21  H   UNL     1      -6.267   5.931   0.750  0.00  0.00    +0.000 HD
ENDBRANCH  16  19
ENDBRANCH   1  13
TORSDOF 4
