REMARK  Name = Darifenacin
REMARK  7 active torsions:
REMARK  status: ('A' for Active; 'I' for Inactive)
REMARK    1  A    between atoms: C_2  and  C_4
REMARK    2  A    between atoms: C_4  and  C_5
REMARK    3  A    between atoms: C_4  and  C_21
REMARK    4  A    between atoms: C_4  and  C_27
REMARK    5  A    between atoms: N_8  and  C_9
REMARK    6  A    between atoms: C_9  and  C_10
REMARK    7  A    between atoms: C_10  and  C_11
REMARK                            x       y       z     vdW  Elec       q    Type
REMARK                         _______ _______ _______ _____ _____    ______ ____
ROOT
ATOM      1  C   UNL     1       3.187  -0.572   1.054  0.00  0.00    +0.000 C 
ENDROOT
BRANCH   1   2
ATOM      2  C   UNL     1       2.766  -2.093   1.216  0.00  0.00    +0.000 A 
ATOM      3  C   UNL     1       1.929  -2.605   2.229  0.00  0.00    +0.000 A 
ATOM      4  C   UNL     1       1.684  -3.963   2.398  0.00  0.00    +0.000 A 
ATOM      5  C   UNL     1       2.357  -4.871   1.611  0.00  0.00    +0.000 A 
ATOM      6  C   UNL     1       3.188  -4.410   0.598  0.00  0.00    +0.000 A 
ATOM      7  C   UNL     1       3.285  -3.044   0.325  0.00  0.00    +0.000 A 
ENDBRANCH   1   2
BRANCH   1   8
ATOM      8  C   UNL     1       4.776  -0.412   0.913  0.00  0.00    +0.000 A 
ATOM      9  C   UNL     1       5.682  -1.488   0.987  0.00  0.00    +0.000 A 
ATOM     10  C   UNL     1       7.064  -1.334   0.847  0.00  0.00    +0.000 A 
ATOM     11  C   UNL     1       7.615  -0.074   0.709  0.00  0.00    +0.000 A 
ATOM     12  C   UNL     1       6.775   1.022   0.675  0.00  0.00    +0.000 A 
ATOM     13  C   UNL     1       5.389   0.840   0.700  0.00  0.00    +0.000 A 
ENDBRANCH   1   8
BRANCH   1  15
ATOM     14  N   UNL     1       1.135  -0.302  -0.409  0.00  0.00    +0.000 N 
ATOM     15  C   UNL     1       2.472  -0.008  -0.243  0.00  0.00    +0.000 C 
ATOM     16  O   UNL     1       2.993   0.713  -1.075  0.00  0.00    +0.000 OA
ATOM     17  H   UNL     1       0.656   0.315  -1.056  0.00  0.00    +0.000 HD
ATOM     18  H   UNL     1       0.574  -0.668   0.343  0.00  0.00    +0.000 HD
ENDBRANCH   1  15
BRANCH   1  19
ATOM     19  C   UNL     1       2.731   0.251   2.345  0.00  0.00    +0.000 C 
ATOM     20  C   UNL     1       1.229   0.236   2.647  0.00  0.00    +0.000 C 
ATOM     21  C   UNL     1       0.694   1.446   1.958  0.00  0.00    +0.000 C 
ATOM     22  N   UNL     1       1.660   2.457   2.297  0.00  0.00    +0.000 NA
ATOM     23  C   UNL     1       2.965   1.781   2.357  0.00  0.00    +0.000 C 
BRANCH  22  24
ATOM     24  C   UNL     1       1.309   3.088   3.548  0.00  0.00    +0.000 C 
BRANCH  24  25
ATOM     25  C   UNL     1      -0.084   3.696   3.387  0.00  0.00    +0.000 C 
BRANCH  25  26
ATOM     26  C   UNL     1      -0.447   4.331   4.672  0.00  0.00    +0.000 A 
ATOM     27  C   UNL     1      -0.957   3.557   5.726  0.00  0.00    +0.000 A 
ATOM     28  C   UNL     1      -1.200   4.205   6.910  0.00  0.00    +0.000 A 
ATOM     29  C   UNL     1      -0.898   5.554   7.045  0.00  0.00    +0.000 A 
ATOM     30  O   UNL     1      -1.179   6.051   8.288  0.00  0.00    +0.000 OA
ATOM     31  C   UNL     1      -2.007   5.023   8.876  0.00  0.00    +0.000 C 
ATOM     32  C   UNL     1      -1.735   3.686   8.185  0.00  0.00    +0.000 C 
ATOM     33  C   UNL     1      -0.368   6.313   6.023  0.00  0.00    +0.000 A 
ATOM     34  C   UNL     1      -0.158   5.693   4.810  0.00  0.00    +0.000 A 
ENDBRANCH  25  26
ENDBRANCH  24  25
ENDBRANCH  22  24
ENDBRANCH   1  19
TORSDOF 7
