REMARK  Name = Daridorexant
REMARK  7 active torsions:
REMARK  status: ('A' for Active; 'I' for Inactive)
REMARK    1  A    between atoms: C_1  and  O_2
REMARK    2  A    between atoms: O_2  and  C_3
REMARK    3  A    between atoms: C_5  and  C_6
REMARK    4  A    between atoms: C_12  and  C_13
REMARK    5  A    between atoms: C_12  and  C_14
REMARK    6  A    between atoms: C_23  and  C_24
REMARK    7  A    between atoms: C_25  and  N_28
REMARK                            x       y       z     vdW  Elec       q    Type
REMARK                         _______ _______ _______ _____ _____    ______ ____
ROOT
ATOM      1  C   UNL     1       6.532  -1.696   1.968  0.00  0.00    +0.000 C 
ATOM      2  O   UNL     1       6.905  -0.593   2.246  0.00  0.00    +0.000 OA
ATOM      3  N   UNL     1       7.405  -2.828   2.012  0.00  0.00    +0.000 N 
ATOM      4  C   UNL     1       8.226  -2.836   3.238  0.00  0.00    +0.000 C 
ATOM      5  C   UNL     1       9.540  -3.447   2.875  0.00  0.00    +0.000 C 
ATOM      6  C   UNL     1       9.274  -4.358   1.638  0.00  0.00    +0.000 C 
ATOM      7  C   UNL     1       7.867  -3.967   0.895  0.00  0.00    +0.000 C 
ATOM      8  C   UNL     1       8.166  -3.262  -0.401  0.00  0.00    +0.000 C 
ENDROOT
BRANCH   7   9
ATOM      9  C   UNL     1       6.945  -5.448   0.512  0.00  0.00    +0.000 A 
ATOM     10  N   UNL     1       7.047  -6.416   1.396  0.00  0.00    +0.000 NA
ATOM     11  C   UNL     1       6.577  -7.523   0.878  0.00  0.00    +0.000 A 
ATOM     12  C   UNL     1       5.380  -7.286   0.222  0.00  0.00    +0.000 A 
ATOM     13  N   UNL     1       6.053  -6.089  -0.507  0.00  0.00    +0.000 N 
ATOM     14  C   UNL     1       4.774  -8.583  -0.010  0.00  0.00    +0.000 A 
ATOM     15  C   UNL     1       5.634  -9.725  -0.169  0.00  0.00    +0.000 A 
ATOM     16  C   UNL     1       7.011  -9.546  -0.183  0.00  0.00    +0.000 A 
ATOM     17 CL   UNL     1       8.074 -10.685  -0.876  0.00  0.00    +0.000 Cl
ATOM     18  C   UNL     1       7.515  -8.393   0.359  0.00  0.00    +0.000 A 
ATOM     19  C   UNL     1       8.861  -7.756   0.260  0.00  0.00    +0.000 C 
ATOM     20  H   UNL     1       6.401  -6.231  -1.449  0.00  0.00    +0.000 HD
ENDBRANCH   7   9
BRANCH   1  23
ATOM     21  C   UNL     1       3.078  -1.078   0.518  0.00  0.00    +0.000 A 
ATOM     22  C   UNL     1       4.290  -0.823   1.182  0.00  0.00    +0.000 A 
ATOM     23  C   UNL     1       5.062  -1.883   1.689  0.00  0.00    +0.000 A 
ATOM     24  C   UNL     1       4.403  -3.077   1.893  0.00  0.00    +0.000 A 
ATOM     25  C   UNL     1       3.429  -3.422   0.937  0.00  0.00    +0.000 A 
ATOM     26  C   UNL     1       2.724  -2.403   0.282  0.00  0.00    +0.000 A 
BRANCH  24  27
ATOM     27  N   UNL     1       4.889  -4.002   2.843  0.00  0.00    +0.000 N 
ATOM     28  N   UNL     1       5.823  -4.766   2.366  0.00  0.00    +0.000 NA
ATOM     29  C   UNL     1       6.489  -5.264   3.353  0.00  0.00    +0.000 A 
ATOM     30  C   UNL     1       5.859  -4.923   4.505  0.00  0.00    +0.000 A 
ATOM     31  N   UNL     1       4.937  -3.971   4.216  0.00  0.00    +0.000 NA
ENDBRANCH  24  27
BRANCH  21  33
ATOM     32  C   UNL     1       0.983  -0.082  -0.019  0.00  0.00    +0.000 C 
ATOM     33  O   UNL     1       2.409   0.009   0.028  0.00  0.00    +0.000 OA
ENDBRANCH  21  33
ENDBRANCH   1  23
TORSDOF 4
