REMARK  Name = Darolutamide
REMARK  10 active torsions:
REMARK  status: ('A' for Active; 'I' for Inactive)
REMARK    1  A    between atoms: C_1  and  C_2
REMARK    2  A    between atoms: C_2  and  C_3
REMARK    3  A    between atoms: C_2  and  N_18
REMARK    4  A    between atoms: C_3  and  N_4
REMARK    5  A    between atoms: C_7  and  C_9
REMARK    6  A    between atoms: C_12  and  C_13
REMARK    7  A    between atoms: C_19  and  C_21
REMARK    8  A    between atoms: C_24  and  C_26
REMARK    9  A    between atoms: C_26  and  C_27
REMARK   10  A    between atoms: C_26  and  O_28
REMARK                            x       y       z     vdW  Elec       q    Type
REMARK                         _______ _______ _______ _____ _____    ______ ____
ROOT
ATOM      1  C   UNL     1       1.108   0.013   0.023  0.00  0.00    +0.000 C 
ATOM      2  C   UNL     1       2.642   0.096  -0.035  0.00  0.00    +0.000 C 
ENDROOT
BRANCH   2   3
ATOM      3  N   UNL     1       3.190  -0.782   1.097  0.00  0.00    +0.000 N 
ATOM      4  C   UNL     1       4.561  -0.984   1.293  0.00  0.00    +0.000 C 
ATOM      5  O   UNL     1       5.371  -0.405   0.574  0.00  0.00    +0.000 OA
ATOM      6  H   UNL     1       2.553  -1.306   1.693  0.00  0.00    +0.000 HD
BRANCH   4   7
ATOM      7  C   UNL     1       5.010  -1.905   2.381  0.00  0.00    +0.000 A 
ATOM      8  N   UNL     1       6.117  -1.647   3.112  0.00  0.00    +0.000 NA
ATOM      9  N   UNL     1       6.321  -2.747   3.857  0.00  0.00    +0.000 N 
ATOM     10  C   UNL     1       5.359  -3.706   3.687  0.00  0.00    +0.000 A 
ATOM     11  C   UNL     1       4.487  -3.173   2.753  0.00  0.00    +0.000 A 
ATOM     12  H   UNL     1       7.141  -2.774   4.460  0.00  0.00    +0.000 HD
BRANCH  10  13
ATOM     13  C   UNL     1       5.397  -5.019   4.393  0.00  0.00    +0.000 C 
ATOM     14  C   UNL     1       5.291  -4.862   5.902  0.00  0.00    +0.000 C 
BRANCH  13  15
ATOM     15  O   UNL     1       4.282  -5.772   3.929  0.00  0.00    +0.000 OA
ATOM     16  H   UNL     1       3.481  -5.279   4.171  0.00  0.00    +0.000 HD
ENDBRANCH  13  15
ENDBRANCH  10  13
ENDBRANCH   4   7
ENDBRANCH   2   3
BRANCH   2  17
ATOM     17  C   UNL     1       3.171   1.626  -0.019  0.00  0.00    +0.000 C 
BRANCH  17  18
ATOM     18  N   UNL     1       2.785   2.748  -0.992  0.00  0.00    +0.000 N 
ATOM     19  C   UNL     1       2.396   3.981  -0.426  0.00  0.00    +0.000 A 
ATOM     20  C   UNL     1       1.719   4.374  -1.579  0.00  0.00    +0.000 A 
ATOM     21  C   UNL     1       2.848   4.829  -2.243  0.00  0.00    +0.000 A 
ATOM     22  N   UNL     1       3.396   3.433  -2.325  0.00  0.00    +0.000 NA
BRANCH  21  23
ATOM     23  C   UNL     1       2.450   6.186  -3.143  0.00  0.00    +0.000 A 
ATOM     24  C   UNL     1       1.047   6.398  -3.421  0.00  0.00    +0.000 A 
ATOM     25  C   UNL     1       0.482   7.438  -4.237  0.00  0.00    +0.000 A 
ATOM     26  C   UNL     1       1.271   8.450  -4.754  0.00  0.00    +0.000 A 
ATOM     27  C   UNL     1       2.605   8.443  -4.333  0.00  0.00    +0.000 A 
ATOM     28 CL   UNL     1       3.642   9.729  -4.902  0.00  0.00    +0.000 Cl
ATOM     29  C   UNL     1       3.179   7.364  -3.500  0.00  0.00    +0.000 A 
BRANCH  26  30
ATOM     30  C   UNL     1       0.712   9.439  -5.692  0.00  0.00    +0.000 C 
ATOM     31  N   UNL     1       0.285  10.190  -6.428  0.00  0.00    +0.000 NA
ENDBRANCH  26  30
ENDBRANCH  21  23
ENDBRANCH  17  18
ENDBRANCH   2  17
TORSDOF 8
