REMARK  Name = Darunavir
REMARK  16 active torsions:
REMARK  status: ('A' for Active; 'I' for Inactive)
REMARK    1  A    between atoms: C_10  and  O_11
REMARK    2  A    between atoms: O_11  and  C_12
REMARK    3  A    between atoms: N_14  and  C_15
REMARK    4  A    between atoms: C_15  and  C_16
REMARK    5  A    between atoms: C_15  and  C_23
REMARK    6  A    between atoms: C_16  and  C_17
REMARK    7  A    between atoms: C_23  and  O_24
REMARK    8  A    between atoms: C_23  and  C_25
REMARK    9  A    between atoms: C_25  and  N_26
REMARK   10  A    between atoms: N_26  and  C_27
REMARK   11  A    between atoms: N_26  and  S_31
REMARK   12  A    between atoms: C_27  and  C_28
REMARK   13  A    between atoms: C_28  and  C_29
REMARK   14  A    between atoms: C_28  and  C_30
REMARK   15  A    between atoms: S_31  and  C_34
REMARK   16  A    between atoms: C_37  and  N_38
REMARK                            x       y       z     vdW  Elec       q    Type
REMARK                         _______ _______ _______ _____ _____    ______ ____
ROOT
ATOM      1  C   UNL     1       2.588   3.734   6.417  0.00  0.00    +0.000 C 
ENDROOT
BRANCH   1   4
ATOM      2  C   UNL     1       0.935   4.772   4.155  0.00  0.00    +0.000 C 
ATOM      3  O   UNL     1       0.877   3.701   3.554  0.00  0.00    +0.000 OA
ATOM      4  N   UNL     1       1.695   5.104   5.381  0.00  0.00    +0.000 N 
ATOM      5  H   UNL     1       0.968   5.592   5.979  0.00  0.00    +0.000 HD
BRANCH   2   6
ATOM      6  O   UNL     1       0.123   5.718   3.699  0.00  0.00    +0.000 OA
BRANCH   6  14
ATOM      7  C   UNL     1       1.168   5.404   1.435  0.00  0.00    +0.000 C 
ATOM      8  C   UNL     1       2.294   6.234   2.016  0.00  0.00    +0.000 C 
ATOM      9  C   UNL     1       2.700   7.178   0.926  0.00  0.00    +0.000 C 
ATOM     10  O   UNL     1       1.625   7.254  -0.003  0.00  0.00    +0.000 OA
ATOM     11  C   UNL     1       0.748   6.141   0.179  0.00  0.00    +0.000 C 
ATOM     12  O   UNL     1      -0.590   6.613   0.380  0.00  0.00    +0.000 OA
ATOM     13  C   UNL     1      -0.823   6.622   1.779  0.00  0.00    +0.000 C 
ATOM     14  C   UNL     1      -0.106   5.424   2.304  0.00  0.00    +0.000 C 
ENDBRANCH   6  14
ENDBRANCH   2   6
ENDBRANCH   1   4
BRANCH   1  15
ATOM     15  C   UNL     1       3.762   3.169   5.620  0.00  0.00    +0.000 C 
BRANCH  15  16
ATOM     16  C   UNL     1       3.477   2.575   4.206  0.00  0.00    +0.000 A 
ATOM     17  C   UNL     1       2.446   1.679   3.760  0.00  0.00    +0.000 A 
ATOM     18  C   UNL     1       2.079   1.405   2.465  0.00  0.00    +0.000 A 
ATOM     19  C   UNL     1       2.833   2.013   1.523  0.00  0.00    +0.000 A 
ATOM     20  C   UNL     1       3.873   2.863   1.917  0.00  0.00    +0.000 A 
ATOM     21  C   UNL     1       4.129   3.217   3.227  0.00  0.00    +0.000 A 
ENDBRANCH  15  16
ENDBRANCH   1  15
BRANCH   1  22
ATOM     22  C   UNL     1       1.304   1.875   6.944  0.00  0.00    +0.000 C 
BRANCH  22  23
ATOM     23  O   UNL     1       0.171   1.538   5.481  0.00  0.00    +0.000 OA
ATOM     24  H   UNL     1       0.042   2.324   4.822  0.00  0.00    +0.000 HD
ENDBRANCH  22  23
BRANCH  22  25
ATOM     25  C   UNL     1      -0.138   2.050   7.549  0.00  0.00    +0.000 C 
BRANCH  25  26
ATOM     26  N   UNL     1       0.189   2.342   8.897  0.00  0.00    +0.000 NA
BRANCH  26  27
ATOM     27  S   UNL     1      -1.191   2.403   9.762  0.00  0.00    +0.000 S 
ATOM     28  O   UNL     1      -1.874   3.593   9.301  0.00  0.00    +0.000 OA
ATOM     29  O   UNL     1      -1.774   1.087   9.655  0.00  0.00    +0.000 OA
BRANCH  27  30
ATOM     30  C   UNL     1      -0.511   2.667  11.360  0.00  0.00    +0.000 A 
ATOM     31  C   UNL     1      -0.202   1.602  12.186  0.00  0.00    +0.000 A 
ATOM     32  C   UNL     1      -0.051   1.843  13.557  0.00  0.00    +0.000 A 
ATOM     33  C   UNL     1       0.056   3.132  14.074  0.00  0.00    +0.000 A 
ATOM     34  C   UNL     1      -0.186   4.187  13.206  0.00  0.00    +0.000 A 
ATOM     35  C   UNL     1      -0.453   3.964  11.854  0.00  0.00    +0.000 A 
BRANCH  33  36
ATOM     36  N   UNL     1       0.377   3.342  15.402  0.00  0.00    +0.000 N 
ATOM     37  H   UNL     1       0.619   2.569  16.008  0.00  0.00    +0.000 HD
ATOM     38  H   UNL     1       0.533   4.274  15.762  0.00  0.00    +0.000 HD
ENDBRANCH  33  36
ENDBRANCH  27  30
ENDBRANCH  26  27
BRANCH  26  39
ATOM     39  C   UNL     1       0.983   3.537   8.945  0.00  0.00    +0.000 C 
BRANCH  39  40
ATOM     40  C   UNL     1       2.040   3.290   8.002  0.00  0.00    +0.000 C 
ATOM     41  C   UNL     1       1.113   3.207   5.967  0.00  0.00    +0.000 C 
ATOM     42  C   UNL     1       3.158   4.837   8.162  0.00  0.00    +0.000 C 
ENDBRANCH  39  40
ENDBRANCH  26  39
ENDBRANCH  25  26
ENDBRANCH  22  25
ENDBRANCH   1  22
TORSDOF 14
