REMARK  Name = Dasatinib
REMARK  8 active torsions:
REMARK  status: ('A' for Active; 'I' for Inactive)
REMARK    1  A    between atoms: C_1  and  C_2
REMARK    2  A    between atoms: C_4  and  N_5
REMARK    3  A    between atoms: C_9  and  C_11
REMARK    4  A    between atoms: N_13  and  C_14
REMARK    5  A    between atoms: C_15  and  C_16
REMARK    6  A    between atoms: N_28  and  C_29
REMARK    7  A    between atoms: C_29  and  C_30
REMARK    8  A    between atoms: C_30  and  O_31
REMARK                            x       y       z     vdW  Elec       q    Type
REMARK                         _______ _______ _______ _____ _____    ______ ____
ROOT
ATOM      1  N   UNL     1       1.916  -2.363  -0.058  0.00  0.00    +0.000 N 
ATOM      2  C   UNL     1       3.261  -2.465   0.082  0.00  0.00    +0.000 A 
ATOM      3  N   UNL     1       3.953  -1.888   1.042  0.00  0.00    +0.000 NA
ATOM      4  C   UNL     1       5.309  -2.084   0.871  0.00  0.00    +0.000 A 
ATOM      5  C   UNL     1       5.685  -2.802  -0.242  0.00  0.00    +0.000 A 
ATOM      6  S   UNL     1       4.246  -3.286  -1.078  0.00  0.00    +0.000 S 
ATOM      7  H   UNL     1       1.323  -3.181  -0.106  0.00  0.00    +0.000 HD
ENDROOT
BRANCH   1  11
ATOM      8  C   UNL     1      -2.317  -0.037   0.016  0.00  0.00    +0.000 C 
ATOM      9  C   UNL     1      -0.814  -0.033   0.007  0.00  0.00    +0.000 A 
ATOM     10  N   UNL     1      -0.157  -1.213  -0.010  0.00  0.00    +0.000 NA
ATOM     11  C   UNL     1       1.190  -1.155  -0.015  0.00  0.00    +0.000 A 
ATOM     12  C   UNL     1       1.853   0.062  -0.041  0.00  0.00    +0.000 A 
ATOM     13  C   UNL     1       1.119   1.220  -0.033  0.00  0.00    +0.000 A 
ATOM     14  N   UNL     1      -0.222   1.176   0.014  0.00  0.00    +0.000 NA
ATOM     15  N   UNL     1       1.720   2.453  -0.027  0.00  0.00    +0.000 N 
ATOM     16  C   UNL     1       2.856   2.867  -0.857  0.00  0.00    +0.000 C 
ATOM     17  C   UNL     1       2.629   4.344  -1.309  0.00  0.00    +0.000 C 
ATOM     18  N   UNL     1       2.346   5.292  -0.191  0.00  0.00    +0.000 NA
ATOM     19  C   UNL     1       1.186   4.750   0.572  0.00  0.00    +0.000 C 
ATOM     20  C   UNL     1       1.411   3.321   1.102  0.00  0.00    +0.000 C 
BRANCH  18  21
ATOM     21  C   UNL     1       3.542   5.455   0.656  0.00  0.00    +0.000 C 
BRANCH  21  22
ATOM     22  C   UNL     1       3.330   6.390   1.853  0.00  0.00    +0.000 C 
BRANCH  22  23
ATOM     23  O   UNL     1       4.514   6.453   2.641  0.00  0.00    +0.000 OA
ATOM     24  H   UNL     1       4.670   5.560   2.994  0.00  0.00    +0.000 HD
ENDBRANCH  22  23
ENDBRANCH  21  22
ENDBRANCH  18  21
ENDBRANCH   1  11
BRANCH   5  25
ATOM     25  C   UNL     1       7.003  -3.161  -0.746  0.00  0.00    +0.000 C 
ATOM     26  O   UNL     1       7.141  -3.874  -1.748  0.00  0.00    +0.000 OA
ATOM     27  N   UNL     1       8.107  -2.667  -0.033  0.00  0.00    +0.000 N 
ATOM     28  H   UNL     1       7.981  -2.399   0.935  0.00  0.00    +0.000 HD
BRANCH  27  29
ATOM     29  C   UNL     1       9.461  -2.894  -0.434  0.00  0.00    +0.000 A 
ATOM     30  C   UNL     1       9.880  -2.652  -1.757  0.00  0.00    +0.000 A 
ATOM     31  C   UNL     1       8.998  -1.996  -2.784  0.00  0.00    +0.000 C 
ATOM     32  C   UNL     1      11.204  -2.957  -2.136  0.00  0.00    +0.000 A 
ATOM     33  C   UNL     1      12.125  -3.444  -1.211  0.00  0.00    +0.000 A 
ATOM     34  C   UNL     1      11.739  -3.615   0.115  0.00  0.00    +0.000 A 
ATOM     35  C   UNL     1      10.422  -3.325   0.505  0.00  0.00    +0.000 A 
ATOM     36 CL   UNL     1      10.003  -3.577   2.165  0.00  0.00    +0.000 Cl
ENDBRANCH  27  29
ENDBRANCH   5  25
TORSDOF 6
