REMARK  Name = Dasabuvir
REMARK  11 active torsions:
REMARK  status: ('A' for Active; 'I' for Inactive)
REMARK    1  A    between atoms: C_1  and  O_2
REMARK    2  A    between atoms: O_2  and  C_3
REMARK    3  A    between atoms: C_4  and  C_32
REMARK    4  A    between atoms: C_6  and  N_24
REMARK    5  A    between atoms: C_8  and  C_9
REMARK    6  A    between atoms: C_14  and  N_15
REMARK    7  A    between atoms: N_15  and  S_16
REMARK    8  A    between atoms: S_16  and  C_17
REMARK    9  A    between atoms: C_32  and  C_33
REMARK   10  A    between atoms: C_32  and  C_34
REMARK   11  A    between atoms: C_32  and  C_35
REMARK                            x       y       z     vdW  Elec       q    Type
REMARK                         _______ _______ _______ _____ _____    ______ ____
ROOT
ATOM      1  C   UNL     1       3.049   0.831  -0.823  0.00  0.00    +0.000 A 
ATOM      2  C   UNL     1       4.135   0.335  -1.613  0.00  0.00    +0.000 A 
ATOM      3  C   UNL     1       4.835   1.257  -2.441  0.00  0.00    +0.000 A 
ATOM      4  C   UNL     1       4.441   2.589  -2.548  0.00  0.00    +0.000 A 
ATOM      5  C   UNL     1       3.373   3.042  -1.757  0.00  0.00    +0.000 A 
ATOM      6  C   UNL     1       2.664   2.191  -0.877  0.00  0.00    +0.000 A 
ENDROOT
BRANCH   6   7
ATOM      7  C   UNL     1       1.499   2.736  -0.126  0.00  0.00    +0.000 A 
ATOM      8  C   UNL     1       0.393   3.215  -0.832  0.00  0.00    +0.000 A 
ATOM      9  C   UNL     1      -0.731   3.829  -0.220  0.00  0.00    +0.000 A 
ATOM     10  C   UNL     1      -1.553   4.573  -1.051  0.00  0.00    +0.000 A 
ATOM     11  C   UNL     1      -2.382   5.584  -0.538  0.00  0.00    +0.000 A 
ATOM     12  C   UNL     1      -3.154   5.360   0.561  0.00  0.00    +0.000 A 
ATOM     13  C   UNL     1      -2.387   4.512   1.492  0.00  0.00    +0.000 A 
ATOM     14  C   UNL     1      -1.005   3.818   1.149  0.00  0.00    +0.000 A 
ATOM     15  C   UNL     1       0.130   3.173   1.879  0.00  0.00    +0.000 A 
ATOM     16  C   UNL     1       1.359   2.719   1.261  0.00  0.00    +0.000 A 
BRANCH  12  17
ATOM     17  N   UNL     1      -4.114   6.514   0.831  0.00  0.00    +0.000 N 
ATOM     18  H   UNL     1      -4.598   6.486   1.731  0.00  0.00    +0.000 HD
BRANCH  17  19
ATOM     19  S   UNL     1      -5.252   7.316  -0.281  0.00  0.00    +0.000 S 
ATOM     20  C   UNL     1      -4.531   8.736  -1.204  0.00  0.00    +0.000 C 
ATOM     21  O   UNL     1      -5.790   6.394  -1.258  0.00  0.00    +0.000 OA
ATOM     22  O   UNL     1      -6.179   7.978   0.630  0.00  0.00    +0.000 OA
ENDBRANCH  17  19
ENDBRANCH  12  17
ENDBRANCH   6   7
BRANCH   4  23
ATOM     23  N   UNL     1       5.038   3.477  -3.506  0.00  0.00    +0.000 N 
ATOM     24  C   UNL     1       5.480   4.729  -3.113  0.00  0.00    +0.000 A 
ATOM     25  C   UNL     1       5.741   5.709  -3.983  0.00  0.00    +0.000 A 
ATOM     26  C   UNL     1       5.589   5.434  -5.414  0.00  0.00    +0.000 A 
ATOM     27  O   UNL     1       5.650   6.346  -6.246  0.00  0.00    +0.000 OA
ATOM     28  N   UNL     1       5.375   4.133  -5.745  0.00  0.00    +0.000 N 
ATOM     29  C   UNL     1       4.949   3.149  -4.875  0.00  0.00    +0.000 A 
ATOM     30  O   UNL     1       4.472   2.113  -5.336  0.00  0.00    +0.000 OA
ATOM     31  H   UNL     1       5.241   3.937  -6.726  0.00  0.00    +0.000 HD
ENDBRANCH   4  23
BRANCH   2  32
ATOM     32  C   UNL     1       4.541  -1.159  -1.726  0.00  0.00    +0.000 C 
ATOM     33  C   UNL     1       4.378  -1.614  -3.200  0.00  0.00    +0.000 C 
ATOM     34  C   UNL     1       6.012  -1.374  -1.306  0.00  0.00    +0.000 C 
ATOM     35  C   UNL     1       3.686  -2.120  -0.882  0.00  0.00    +0.000 C 
ENDBRANCH   2  32
BRANCH   1  37
ATOM     36  C   UNL     1       1.058  -0.217  -0.002  0.00  0.00    +0.000 C 
ATOM     37  O   UNL     1       2.466   0.007   0.114  0.00  0.00    +0.000 OA
ENDBRANCH   1  37
TORSDOF 6
