REMARK  Name = Daunorubicin
REMARK  12 active torsions:
REMARK  status: ('A' for Active; 'I' for Inactive)
REMARK    1  A    between atoms: C_1  and  O_2
REMARK    2  A    between atoms: O_2  and  C_3
REMARK    3  A    between atoms: C_12  and  O_13
REMARK    4  A    between atoms: C_17  and  O_18
REMARK    5  A    between atoms: C_17  and  C_31
REMARK    6  A    between atoms: C_20  and  O_21
REMARK    7  A    between atoms: O_21  and  C_22
REMARK    8  A    between atoms: C_24  and  N_25
REMARK    9  A    between atoms: C_26  and  O_27
REMARK   10  A    between atoms: C_28  and  C_29
REMARK   11  A    between atoms: C_31  and  C_32
REMARK   12  A    between atoms: C_34  and  O_35
REMARK                            x       y       z     vdW  Elec       q    Type
REMARK                         _______ _______ _______ _____ _____    ______ ____
ROOT
ATOM      1  C   UNL     1     -11.042   2.459  -2.996  0.00  0.00    +0.000 A 
ATOM      2  C   UNL     1     -12.027   1.959  -2.127  0.00  0.00    +0.000 A 
ATOM      3  C   UNL     1     -11.754   0.919  -1.231  0.00  0.00    +0.000 A 
ATOM      4  C   UNL     1     -10.485   0.362  -1.193  0.00  0.00    +0.000 A 
ATOM      5  C   UNL     1      -9.490   0.856  -2.042  0.00  0.00    +0.000 A 
ATOM      6  C   UNL     1      -9.754   1.919  -2.919  0.00  0.00    +0.000 A 
ATOM      7  C   UNL     1      -8.610   2.515  -3.602  0.00  0.00    +0.000 C 
ATOM      8  O   UNL     1      -8.610   3.674  -4.033  0.00  0.00    +0.000 OA
ATOM      9  C   UNL     1      -7.352   1.804  -3.708  0.00  0.00    +0.000 A 
ATOM     10  C   UNL     1      -6.388   2.283  -4.588  0.00  0.00    +0.000 A 
ATOM     11  C   UNL     1      -5.100   1.764  -4.535  0.00  0.00    +0.000 A 
ATOM     12  C   UNL     1      -4.783   0.724  -3.640  0.00  0.00    +0.000 A 
ATOM     13  C   UNL     1      -3.386   0.142  -3.621  0.00  0.00    +0.000 C 
ATOM     14  C   UNL     1      -2.363   1.052  -4.286  0.00  0.00    +0.000 C 
ATOM     15  C   UNL     1      -2.888   1.409  -5.666  0.00  0.00    +0.000 C 
ATOM     16  C   UNL     1      -4.076   2.334  -5.469  0.00  0.00    +0.000 C 
ATOM     17  C   UNL     1      -5.786   0.209  -2.815  0.00  0.00    +0.000 A 
ATOM     18  C   UNL     1      -7.075   0.750  -2.841  0.00  0.00    +0.000 A 
ATOM     19  C   UNL     1      -8.144   0.263  -1.947  0.00  0.00    +0.000 C 
ATOM     20  O   UNL     1      -7.962  -0.635  -1.129  0.00  0.00    +0.000 OA
ENDROOT
BRANCH  14  21
ATOM     21  C   UNL     1      -1.024   0.341  -4.433  0.00  0.00    +0.000 C 
ATOM     22  C   UNL     1       0.168   1.029  -3.820  0.00  0.00    +0.000 C 
ATOM     23  O   UNL     1      -0.916  -0.722  -5.044  0.00  0.00    +0.000 OA
ENDBRANCH  14  21
BRANCH   1  25
ATOM     24  C   UNL     1     -11.131   3.562  -5.134  0.00  0.00    +0.000 C 
ATOM     25  O   UNL     1     -11.415   3.551  -3.733  0.00  0.00    +0.000 OA
ENDBRANCH   1  25
BRANCH  10  26
ATOM     26  O   UNL     1      -6.649   3.248  -5.532  0.00  0.00    +0.000 OA
ATOM     27  H   UNL     1      -7.505   3.683  -5.317  0.00  0.00    +0.000 HD
ENDBRANCH  10  26
BRANCH  14  28
ATOM     28  O   UNL     1      -2.153   2.195  -3.447  0.00  0.00    +0.000 OA
ATOM     29  H   UNL     1      -2.930   2.793  -3.490  0.00  0.00    +0.000 HD
ENDBRANCH  14  28
BRANCH  17  30
ATOM     30  O   UNL     1      -5.514  -0.813  -1.956  0.00  0.00    +0.000 OA
ATOM     31  H   UNL     1      -4.596  -1.112  -2.003  0.00  0.00    +0.000 HD
ENDBRANCH  17  30
BRANCH  16  32
ATOM     32  O   UNL     1      -3.661   3.652  -4.996  0.00  0.00    +0.000 OA
BRANCH  32  33
ATOM     33  C   UNL     1      -2.886   4.316  -6.012  0.00  0.00    +0.000 C 
ATOM     34  C   UNL     1      -3.799   4.460  -7.219  0.00  0.00    +0.000 C 
ATOM     35  C   UNL     1      -3.150   5.011  -8.449  0.00  0.00    +0.000 C 
ATOM     36  C   UNL     1      -2.487   6.327  -8.045  0.00  0.00    +0.000 C 
ATOM     37  C   UNL     1      -1.549   6.128  -6.829  0.00  0.00    +0.000 C 
ATOM     38  C   UNL     1      -0.322   5.257  -7.170  0.00  0.00    +0.000 C 
ATOM     39  O   UNL     1      -2.307   5.598  -5.695  0.00  0.00    +0.000 OA
BRANCH  35  40
ATOM     40  N   UNL     1      -2.314   3.978  -9.086  0.00  0.00    +0.000 NA
ATOM     41  H   UNL     1      -1.730   3.453  -8.442  0.00  0.00    +0.000 HD
ATOM     42  H   UNL     1      -1.720   4.367  -9.808  0.00  0.00    +0.000 HD
ENDBRANCH  35  40
BRANCH  36  43
ATOM     43  O   UNL     1      -1.849   6.916  -9.171  0.00  0.00    +0.000 OA
ATOM     44  H   UNL     1      -1.218   6.272  -9.527  0.00  0.00    +0.000 HD
ENDBRANCH  36  43
ENDBRANCH  32  33
ENDBRANCH  16  32
TORSDOF 9
