REMARK  Name = Debrisoquine
REMARK  0 active torsions:
REMARK  status: ('A' for Active; 'I' for Inactive)
REMARK                            x       y       z     vdW  Elec       q    Type
REMARK                         _______ _______ _______ _____ _____    ______ ____
ROOT
ATOM      1  N   UNL     1       1.225  -0.166  -0.148  0.00  0.00    +0.000 N 
ATOM      2  C   UNL     1       2.559   0.029  -0.039  0.00  0.00    +0.000 C 
ATOM      3  N   UNL     1       3.206   0.676  -0.950  0.00  0.00    +0.000 NA
ATOM      4  N   UNL     1       3.140  -0.482   1.090  0.00  0.00    +0.000 N 
ATOM      5  C   UNL     1       2.780  -1.827   1.577  0.00  0.00    +0.000 C 
ATOM      6  C   UNL     1       3.467  -2.197   2.896  0.00  0.00    +0.000 C 
ATOM      7  C   UNL     1       4.955  -2.092   2.725  0.00  0.00    +0.000 A 
ATOM      8  C   UNL     1       5.844  -3.035   3.249  0.00  0.00    +0.000 A 
ATOM      9  C   UNL     1       7.213  -2.901   3.020  0.00  0.00    +0.000 A 
ATOM     10  C   UNL     1       7.694  -1.821   2.281  0.00  0.00    +0.000 A 
ATOM     11  C   UNL     1       6.809  -0.861   1.781  0.00  0.00    +0.000 A 
ATOM     12  C   UNL     1       5.431  -0.991   1.996  0.00  0.00    +0.000 A 
ATOM     13  C   UNL     1       4.441   0.063   1.538  0.00  0.00    +0.000 C 
ATOM     14  H   UNL     1       0.734   0.450  -0.784  0.00  0.00    +0.000 HD
ATOM     15  H   UNL     1       0.736  -0.258   0.734  0.00  0.00    +0.000 HD
ATOM     16  H   UNL     1       2.574   0.925  -1.709  0.00  0.00    +0.000 HD
ENDROOT
TORSDOF 0
