REMARK  Name = Decamethonium
REMARK  17 active torsions:
REMARK  status: ('A' for Active; 'I' for Inactive)
REMARK    1  A    between atoms: C_1  and  N_2
REMARK    2  A    between atoms: N_2  and  C_3
REMARK    3  A    between atoms: N_2  and  C_4
REMARK    4  A    between atoms: N_2  and  C_5
REMARK    5  A    between atoms: C_5  and  C_6
REMARK    6  A    between atoms: C_6  and  C_7
REMARK    7  A    between atoms: C_7  and  C_8
REMARK    8  A    between atoms: C_8  and  C_9
REMARK    9  A    between atoms: C_9  and  C_10
REMARK   10  A    between atoms: C_10  and  C_11
REMARK   11  A    between atoms: C_11  and  C_12
REMARK   12  A    between atoms: C_12  and  C_13
REMARK   13  A    between atoms: C_13  and  C_14
REMARK   14  A    between atoms: C_14  and  N_15
REMARK   15  A    between atoms: N_15  and  C_16
REMARK   16  A    between atoms: N_15  and  C_17
REMARK   17  A    between atoms: N_15  and  C_18
REMARK                            x       y       z     vdW  Elec       q    Type
REMARK                         _______ _______ _______ _____ _____    ______ ____
ROOT
ATOM      1  C   UNL     1       6.942   2.996   3.118  0.00  0.00    +0.000 C 
ENDROOT
BRANCH   1   2
ATOM      2  C   UNL     1       6.417   2.005   2.105  0.00  0.00    +0.000 C 
BRANCH   2   3
ATOM      3  C   UNL     1       4.899   2.021   2.121  0.00  0.00    +0.000 C 
BRANCH   3   4
ATOM      4  C   UNL     1       4.410   1.019   1.097  0.00  0.00    +0.000 C 
BRANCH   4   5
ATOM      5  C   UNL     1       2.891   0.979   1.056  0.00  0.00    +0.000 C 
BRANCH   5   7
ATOM      6  C   UNL     1       0.853  -0.002   0.053  0.00  0.00    +0.000 C 
ATOM      7  N   UNL     1       2.381  -0.032   0.023  0.00  0.00    +0.000 N 
ATOM      8  C   UNL     1       2.839  -1.447   0.364  0.00  0.00    +0.000 C 
ATOM      9  C   UNL     1       2.839   0.340  -1.385  0.00  0.00    +0.000 C 
ENDBRANCH   5   7
ENDBRANCH   4   5
ENDBRANCH   3   4
ENDBRANCH   2   3
ENDBRANCH   1   2
BRANCH   1  10
ATOM     10  C   UNL     1       8.456   2.971   3.092  0.00  0.00    +0.000 C 
BRANCH  10  11
ATOM     11  C   UNL     1       8.981   3.962   4.105  0.00  0.00    +0.000 C 
BRANCH  11  12
ATOM     12  C   UNL     1      10.499   3.946   4.089  0.00  0.00    +0.000 C 
BRANCH  12  13
ATOM     13  C   UNL     1      10.987   4.949   5.114  0.00  0.00    +0.000 C 
BRANCH  13  14
ATOM     14  C   UNL     1      12.506   4.989   5.155  0.00  0.00    +0.000 C 
BRANCH  14  15
ATOM     15  N   UNL     1      13.016   5.999   6.187  0.00  0.00    +0.000 N 
ATOM     16  C   UNL     1      12.559   7.415   5.846  0.00  0.00    +0.000 C 
ATOM     17  C   UNL     1      12.559   5.628   7.595  0.00  0.00    +0.000 C 
ATOM     18  C   UNL     1      14.544   5.969   6.157  0.00  0.00    +0.000 C 
ENDBRANCH  14  15
ENDBRANCH  13  14
ENDBRANCH  12  13
ENDBRANCH  11  12
ENDBRANCH  10  11
ENDBRANCH   1  10
TORSDOF 11
