REMARK  Name = Decitabine
REMARK  4 active torsions:
REMARK  status: ('A' for Active; 'I' for Inactive)
REMARK    1  A    between atoms: N_6  and  C1*_9
REMARK    2  A    between atoms: C3*_11  and  O3*_12
REMARK    3  A    between atoms: C4*_13  and  C5*_14
REMARK    4  A    between atoms: C5*_14  and  O5*_15
REMARK                            x       y       z     vdW  Elec       q    Type
REMARK                         _______ _______ _______ _____ _____    ______ ____
ROOT
ATOM      1  N   UNL     1       1.180   0.040   0.093  0.00  0.00    +0.000 N 
ATOM      2  C   UNL     1       2.528   0.082   0.080  0.00  0.00    +0.000 A 
ATOM      3  N   UNL     1       3.120   1.226   0.078  0.00  0.00    +0.000 NA
ATOM      4  C   UNL     1       4.482   1.285   0.078  0.00  0.00    +0.000 A 
ATOM      5  O   UNL     1       5.057   2.374   0.103  0.00  0.00    +0.000 OA
ATOM      6  N   UNL     1       5.187   0.108   0.075  0.00  0.00    +0.000 N 
ATOM      7  C   UNL     1       4.475  -1.043   0.064  0.00  0.00    +0.000 A 
ATOM      8  N   UNL     1       3.192  -1.099   0.073  0.00  0.00    +0.000 NA
ATOM      9  H   UNL     1       0.662   0.906   0.078  0.00  0.00    +0.000 HD
ATOM     10  H   UNL     1       0.693  -0.842   0.075  0.00  0.00    +0.000 HD
ENDROOT
BRANCH   6  11
ATOM     11  C1* UNL     1       6.639   0.134   0.122  0.00  0.00    +0.000 C 
ATOM     12  C2* UNL     1       7.248  -0.576   1.326  0.00  0.00    +0.000 C 
ATOM     13  C3* UNL     1       8.590  -1.032   0.801  0.00  0.00    +0.000 C 
ATOM     14  C4* UNL     1       8.311  -1.311  -0.675  0.00  0.00    +0.000 C 
ATOM     15  O4* UNL     1       7.173  -0.507  -1.052  0.00  0.00    +0.000 OA
BRANCH  13  16
ATOM     16  O3* UNL     1       9.555   0.008   0.963  0.00  0.00    +0.000 OA
ATOM     17  H3* UNL     1       9.303   0.780   0.428  0.00  0.00    +0.000 HD
ENDBRANCH  13  16
BRANCH  14  18
ATOM     18  C5* UNL     1       7.973  -2.781  -0.935  0.00  0.00    +0.000 C 
BRANCH  18  19
ATOM     19  O5* UNL     1       9.058  -3.634  -0.598  0.00  0.00    +0.000 OA
ATOM     20  H5* UNL     1       9.824  -3.378  -1.143  0.00  0.00    +0.000 HD
ENDBRANCH  18  19
ENDBRANCH  14  18
ENDBRANCH   6  11
TORSDOF 4
