REMARK  Name = Deferoxamine
REMARK  28 active torsions:
REMARK  status: ('A' for Active; 'I' for Inactive)
REMARK    1  A    between atoms: C_1  and  C_2
REMARK    2  A    between atoms: N_4  and  O_5
REMARK    3  A    between atoms: N_4  and  C_6
REMARK    4  A    between atoms: C_6  and  C_7
REMARK    5  A    between atoms: C_7  and  C_8
REMARK    6  A    between atoms: C_8  and  C_9
REMARK    7  A    between atoms: C_9  and  C_10
REMARK    8  A    between atoms: C_10  and  N_11
REMARK    9  A    between atoms: C_12  and  C_14
REMARK   10  A    between atoms: C_14  and  C_15
REMARK   11  A    between atoms: C_15  and  C_16
REMARK   12  A    between atoms: N_18  and  O_19
REMARK   13  A    between atoms: N_18  and  C_20
REMARK   14  A    between atoms: C_20  and  C_21
REMARK   15  A    between atoms: C_21  and  C_22
REMARK   16  A    between atoms: C_22  and  C_23
REMARK   17  A    between atoms: C_23  and  C_24
REMARK   18  A    between atoms: C_24  and  N_25
REMARK   19  A    between atoms: C_26  and  C_28
REMARK   20  A    between atoms: C_28  and  C_29
REMARK   21  A    between atoms: C_29  and  C_30
REMARK   22  A    between atoms: N_32  and  O_33
REMARK   23  A    between atoms: N_32  and  C_34
REMARK   24  A    between atoms: C_34  and  C_35
REMARK   25  A    between atoms: C_35  and  C_36
REMARK   26  A    between atoms: C_36  and  C_37
REMARK   27  A    between atoms: C_37  and  C_38
REMARK   28  A    between atoms: C_38  and  N_39
REMARK                            x       y       z     vdW  Elec       q    Type
REMARK                         _______ _______ _______ _____ _____    ______ ____
ROOT
ATOM      1  C   UNL     1      15.100  10.115   1.252  0.00  0.00    +0.000 C 
ENDROOT
BRANCH   1   4
ATOM      2  C   UNL     1      13.155   8.577   1.068  0.00  0.00    +0.000 C 
ATOM      3  O   UNL     1      12.360   9.514   1.180  0.00  0.00    +0.000 OA
ATOM      4  N   UNL     1      14.517   8.778   1.092  0.00  0.00    +0.000 N 
BRANCH   4   5
ATOM      5  O   UNL     1      15.474   7.759   0.970  0.00  0.00    +0.000 OA
ATOM      6  H   UNL     1      14.991   6.924   0.870  0.00  0.00    +0.000 HD
ENDBRANCH   4   5
BRANCH   2   7
ATOM      7  C   UNL     1      12.656   7.151   0.897  0.00  0.00    +0.000 C 
BRANCH   7   8
ATOM      8  C   UNL     1      11.122   7.062   0.887  0.00  0.00    +0.000 C 
BRANCH   8  10
ATOM      9  N   UNL     1       9.294   5.437   0.693  0.00  0.00    +0.000 N 
ATOM     10  C   UNL     1      10.662   5.624   0.715  0.00  0.00    +0.000 C 
ATOM     11  O   UNL     1      11.455   4.691   0.603  0.00  0.00    +0.000 OA
ATOM     12  H   UNL     1       8.668   6.229   0.787  0.00  0.00    +0.000 HD
BRANCH   9  13
ATOM     13  C   UNL     1       8.743   4.100   0.533  0.00  0.00    +0.000 C 
BRANCH  13  14
ATOM     14  C   UNL     1       7.217   4.072   0.529  0.00  0.00    +0.000 C 
BRANCH  14  15
ATOM     15  C   UNL     1       6.686   2.643   0.359  0.00  0.00    +0.000 C 
BRANCH  15  16
ATOM     16  C   UNL     1       5.157   2.629   0.357  0.00  0.00    +0.000 C 
BRANCH  16  17
ATOM     17  C   UNL     1       4.596   1.217   0.188  0.00  0.00    +0.000 C 
BRANCH  17  21
ATOM     18  C   UNL     1       0.974  -0.044   0.038  0.00  0.00    +0.000 C 
ATOM     19  C   UNL     1       2.481  -0.071   0.034  0.00  0.00    +0.000 C 
ATOM     20  O   UNL     1       3.080  -1.142  -0.094  0.00  0.00    +0.000 OA
ATOM     21  N   UNL     1       3.134   1.127   0.178  0.00  0.00    +0.000 N 
BRANCH  21  22
ATOM     22  O   UNL     1       2.489   2.365   0.325  0.00  0.00    +0.000 OA
ATOM     23  H   UNL     1       1.537   2.190   0.305  0.00  0.00    +0.000 HD
ENDBRANCH  21  22
ENDBRANCH  17  21
ENDBRANCH  16  17
ENDBRANCH  15  16
ENDBRANCH  14  15
ENDBRANCH  13  14
ENDBRANCH   9  13
ENDBRANCH   8  10
ENDBRANCH   7   8
ENDBRANCH   2   7
ENDBRANCH   1   4
BRANCH   1  24
ATOM     24  C   UNL     1      16.630  10.170   1.258  0.00  0.00    +0.000 C 
BRANCH  24  25
ATOM     25  C   UNL     1      17.155  11.598   1.429  0.00  0.00    +0.000 C 
BRANCH  25  26
ATOM     26  C   UNL     1      18.689  11.622   1.432  0.00  0.00    +0.000 C 
BRANCH  26  27
ATOM     27  C   UNL     1      19.225  13.041   1.601  0.00  0.00    +0.000 C 
BRANCH  27  28
ATOM     28  N   UNL     1      20.678  13.111   1.609  0.00  0.00    +0.000 N 
ATOM     29  C   UNL     1      21.312  14.329   1.755  0.00  0.00    +0.000 C 
ATOM     30  O   UNL     1      20.690  15.383   1.881  0.00  0.00    +0.000 OA
ATOM     31  H   UNL     1      21.222  12.262   1.508  0.00  0.00    +0.000 HD
BRANCH  29  32
ATOM     32  C   UNL     1      22.830  14.281   1.749  0.00  0.00    +0.000 C 
BRANCH  32  33
ATOM     33  C   UNL     1      23.426  15.687   1.917  0.00  0.00    +0.000 C 
BRANCH  33  34
ATOM     34  C   UNL     1      24.946  15.677   1.916  0.00  0.00    +0.000 C 
ATOM     35  O   UNL     1      25.570  14.621   1.790  0.00  0.00    +0.000 OA
ATOM     36  N   UNL     1      25.589  16.885   2.060  0.00  0.00    +0.000 N 
BRANCH  36  37
ATOM     37  O   UNL     1      24.941  18.121   2.205  0.00  0.00    +0.000 OA
ATOM     38  H   UNL     1      23.987  17.950   2.190  0.00  0.00    +0.000 HD
ENDBRANCH  36  37
BRANCH  36  39
ATOM     39  C   UNL     1      27.051  16.985   2.073  0.00  0.00    +0.000 C 
BRANCH  39  40
ATOM     40  C   UNL     1      27.611  18.396   2.241  0.00  0.00    +0.000 C 
BRANCH  40  41
ATOM     41  C   UNL     1      29.138  18.401   2.242  0.00  0.00    +0.000 C 
BRANCH  41  42
ATOM     42  C   UNL     1      29.669  19.825   2.412  0.00  0.00    +0.000 C 
BRANCH  42  43
ATOM     43  C   UNL     1      31.193  19.841   2.416  0.00  0.00    +0.000 C 
BRANCH  43  44
ATOM     44  N   UNL     1      31.675  21.205   2.589  0.00  0.00    +0.000 NA
ATOM     45  H   UNL     1      31.354  21.782   1.813  0.00  0.00    +0.000 HD
ATOM     46  H   UNL     1      32.693  21.212   2.552  0.00  0.00    +0.000 HD
ENDBRANCH  43  44
ENDBRANCH  42  43
ENDBRANCH  41  42
ENDBRANCH  40  41
ENDBRANCH  39  40
ENDBRANCH  36  39
ENDBRANCH  33  34
ENDBRANCH  32  33
ENDBRANCH  29  32
ENDBRANCH  27  28
ENDBRANCH  26  27
ENDBRANCH  25  26
ENDBRANCH  24  25
ENDBRANCH   1  24
TORSDOF 27
