REMARK  Name = Deferiprone
REMARK  3 active torsions:
REMARK  status: ('A' for Active; 'I' for Inactive)
REMARK    1  A    between atoms: C_1  and  N_2
REMARK    2  A    between atoms: C_7  and  O_8
REMARK    3  A    between atoms: C_9  and  C_10
REMARK                            x       y       z     vdW  Elec       q    Type
REMARK                         _______ _______ _______ _____ _____    ______ ____
ROOT
ATOM      1  C   UNL     1       0.966   0.120  -0.049  0.00  0.00    +0.000 C 
ATOM      2  N   UNL     1       2.435   0.084  -0.058  0.00  0.00    +0.000 N 
ATOM      3  C   UNL     1       3.155   1.271  -0.008  0.00  0.00    +0.000 A 
ATOM      4  C   UNL     1       4.465   1.353   0.254  0.00  0.00    +0.000 A 
ATOM      5  C   UNL     1       5.232   0.095   0.233  0.00  0.00    +0.000 A 
ATOM      6  O   UNL     1       6.465   0.086   0.290  0.00  0.00    +0.000 OA
ATOM      7  C   UNL     1       4.481  -1.188   0.121  0.00  0.00    +0.000 A 
ATOM      8  C   UNL     1       3.133  -1.138   0.078  0.00  0.00    +0.000 A 
ATOM      9  C   UNL     1       2.339  -2.411   0.221  0.00  0.00    +0.000 C 
ENDROOT
BRANCH   7  10
ATOM     10  O   UNL     1       5.202  -2.367   0.087  0.00  0.00    +0.000 OA
ATOM     11  H   UNL     1       6.137  -2.087   0.011  0.00  0.00    +0.000 HD
ENDBRANCH   7  10
TORSDOF 1
