REMARK  Name = Deferasirox
REMARK  7 active torsions:
REMARK  status: ('A' for Active; 'I' for Inactive)
REMARK    1  A    between atoms: O_1  and  C_2
REMARK    2  A    between atoms: C_2  and  C_4
REMARK    3  A    between atoms: C_7  and  N_10
REMARK    4  A    between atoms: C_12  and  C_22
REMARK    5  A    between atoms: C_14  and  C_15
REMARK    6  A    between atoms: C_20  and  O_21
REMARK    7  A    between atoms: C_27  and  O_28
REMARK                            x       y       z     vdW  Elec       q    Type
REMARK                         _______ _______ _______ _____ _____    ______ ____
ROOT
ATOM      1  N   UNL     1       5.479   4.974  -0.923  0.00  0.00    +0.000 N 
ATOM      2  N   UNL     1       5.795   5.578  -2.152  0.00  0.00    +0.000 NA
ATOM      3  C   UNL     1       6.403   6.750  -1.787  0.00  0.00    +0.000 A 
ATOM      4  N   UNL     1       6.441   6.913  -0.423  0.00  0.00    +0.000 NA
ATOM      5  C   UNL     1       5.939   5.805   0.087  0.00  0.00    +0.000 A 
ENDROOT
BRANCH   1   9
ATOM      6  C   UNL     1       3.214   1.284  -0.287  0.00  0.00    +0.000 A 
ATOM      7  C   UNL     1       4.352   1.315  -1.108  0.00  0.00    +0.000 A 
ATOM      8  C   UNL     1       5.093   2.519  -1.321  0.00  0.00    +0.000 A 
ATOM      9  C   UNL     1       4.695   3.737  -0.746  0.00  0.00    +0.000 A 
ATOM     10  C   UNL     1       3.590   3.671   0.144  0.00  0.00    +0.000 A 
ATOM     11  C   UNL     1       2.845   2.470   0.350  0.00  0.00    +0.000 A 
BRANCH   6  12
ATOM     12  C   UNL     1       2.534  -0.016   0.015  0.00  0.00    +0.000 C 
ATOM     13  O   UNL     1       3.162  -1.058   0.200  0.00  0.00    +0.000 OA
BRANCH  12  14
ATOM     14  O   UNL     1       1.188   0.023   0.076  0.00  0.00    +0.000 OA
ATOM     15  H   UNL     1       0.761   0.857  -0.191  0.00  0.00    +0.000 HD
ENDBRANCH  12  14
ENDBRANCH   6  12
ENDBRANCH   1   9
BRANCH   5  16
ATOM     16  C   UNL     1       5.975   5.497   1.509  0.00  0.00    +0.000 A 
ATOM     17  C   UNL     1       5.482   6.460   2.397  0.00  0.00    +0.000 A 
ATOM     18  C   UNL     1       5.653   6.302   3.769  0.00  0.00    +0.000 A 
ATOM     19  C   UNL     1       6.249   5.144   4.265  0.00  0.00    +0.000 A 
ATOM     20  C   UNL     1       6.716   4.159   3.392  0.00  0.00    +0.000 A 
ATOM     21  C   UNL     1       6.589   4.343   2.017  0.00  0.00    +0.000 A 
BRANCH  21  22
ATOM     22  O   UNL     1       7.085   3.405   1.153  0.00  0.00    +0.000 OA
ATOM     23  H   UNL     1       7.407   2.636   1.652  0.00  0.00    +0.000 HD
ENDBRANCH  21  22
ENDBRANCH   5  16
BRANCH   3  24
ATOM     24  C   UNL     1       7.072   7.816  -2.635  0.00  0.00    +0.000 A 
ATOM     25  C   UNL     1       6.375   8.755  -3.433  0.00  0.00    +0.000 A 
ATOM     26  C   UNL     1       7.048   9.773  -4.172  0.00  0.00    +0.000 A 
ATOM     27  C   UNL     1       8.425   9.945  -4.069  0.00  0.00    +0.000 A 
ATOM     28  C   UNL     1       9.136   9.083  -3.243  0.00  0.00    +0.000 A 
ATOM     29  C   UNL     1       8.468   8.045  -2.543  0.00  0.00    +0.000 A 
BRANCH  29  30
ATOM     30  O   UNL     1       9.229   7.243  -1.730  0.00  0.00    +0.000 OA
ATOM     31  H   UNL     1      10.135   7.588  -1.700  0.00  0.00    +0.000 HD
ENDBRANCH  29  30
ENDBRANCH   3  24
TORSDOF 7
