REMARK  Name = Deflazacort
REMARK  9 active torsions:
REMARK  status: ('A' for Active; 'I' for Inactive)
REMARK    1  A    between atoms: C_16  and  C_17
REMARK    2  A    between atoms: C_20  and  O_22
REMARK    3  A    between atoms: C_24  and  C_25
REMARK    4  A    between atoms: C_26  and  C_31
REMARK    5  A    between atoms: C_28  and  C_29
REMARK    6  A    between atoms: C_31  and  C_33
REMARK    7  A    between atoms: C_33  and  O_34
REMARK    8  A    between atoms: O_34  and  C_35
REMARK    9  A    between atoms: C_35  and  C_36
REMARK                            x       y       z     vdW  Elec       q    Type
REMARK                         _______ _______ _______ _____ _____    ______ ____
ROOT
ATOM      1  C   UNL     1       2.165  -0.110  -0.034  0.00  0.00    +0.000 C 
ATOM      2  C   UNL     1       2.386  -0.001   1.473  0.00  0.00    +0.000 C 
ATOM      3  C   UNL     1       3.899  -0.040   1.666  0.00  0.00    +0.000 C 
ATOM      4  C   UNL     1       4.530   1.318   1.172  0.00  0.00    +0.000 C 
ATOM      5  C   UNL     1       3.817   2.459   1.891  0.00  0.00    +0.000 C 
ATOM      6  C   UNL     1       4.462   3.698   1.449  0.00  0.00    +0.000 C 
ATOM      7  C   UNL     1       5.913   3.515   2.051  0.00  0.00    +0.000 C 
ATOM      8  C   UNL     1       6.533   4.376   2.878  0.00  0.00    +0.000 C 
ATOM      9  C   UNL     1       6.022   5.582   2.258  0.00  0.00    +0.000 C 
ATOM     10  O   UNL     1       5.175   6.296   2.808  0.00  0.00    +0.000 OA
ATOM     11  C   UNL     1       6.487   5.593   0.771  0.00  0.00    +0.000 C 
ATOM     12  C   UNL     1       6.730   4.355   0.138  0.00  0.00    +0.000 C 
ATOM     13  C   UNL     1       6.779   2.928   0.965  0.00  0.00    +0.000 C 
ATOM     14  C   UNL     1       8.311   2.740   1.168  0.00  0.00    +0.000 C 
ATOM     15  C   UNL     1       6.107   1.419   1.176  0.00  0.00    +0.000 C 
ATOM     16  C   UNL     1       6.579   0.198   0.341  0.00  0.00    +0.000 C 
ATOM     17  C   UNL     1       5.948  -1.070   0.892  0.00  0.00    +0.000 C 
ATOM     18  C   UNL     1       4.369  -1.254   0.794  0.00  0.00    +0.000 C 
ATOM     19  C   UNL     1       4.359  -2.696   1.390  0.00  0.00    +0.000 C 
ATOM     20  C   UNL     1       3.200  -1.176  -0.497  0.00  0.00    +0.000 C 
ATOM     21  N   UNL     1       3.736  -0.604  -1.761  0.00  0.00    +0.000 NA
ATOM     22  C   UNL     1       3.179   0.562  -1.888  0.00  0.00    +0.000 C 
ATOM     23  C   UNL     1       3.365   1.468  -3.079  0.00  0.00    +0.000 C 
ATOM     24  O   UNL     1       2.419   1.031  -0.867  0.00  0.00    +0.000 OA
ENDROOT
BRANCH  16  25
ATOM     25  O   UNL     1       7.983  -0.030   0.279  0.00  0.00    +0.000 OA
ATOM     26  H   UNL     1       8.380  -0.098   1.166  0.00  0.00    +0.000 HD
ENDBRANCH  16  25
BRANCH  20  27
ATOM     27  C   UNL     1       2.307  -2.479  -0.907  0.00  0.00    +0.000 C 
ATOM     28  O   UNL     1       2.404  -3.544  -0.290  0.00  0.00    +0.000 OA
BRANCH  27  29
ATOM     29  C   UNL     1       1.230  -2.395  -2.080  0.00  0.00    +0.000 C 
BRANCH  29  30
ATOM     30  O   UNL     1       0.542  -3.671  -2.303  0.00  0.00    +0.000 OA
BRANCH  30  31
ATOM     31  C   UNL     1      -0.407  -3.938  -3.240  0.00  0.00    +0.000 C 
ATOM     32  C   UNL     1      -0.872  -2.842  -4.155  0.00  0.00    +0.000 C 
ATOM     33  O   UNL     1      -0.900  -5.061  -3.344  0.00  0.00    +0.000 OA
ENDBRANCH  30  31
ENDBRANCH  29  30
ENDBRANCH  27  29
ENDBRANCH  20  27
TORSDOF 5
