REMARK  Name = Dehydrocholic acid
REMARK  8 active torsions:
REMARK  status: ('A' for Active; 'I' for Inactive)
REMARK    1  A    between atoms: C_2  and  C_28
REMARK    2  A    between atoms: C_19  and  C_20
REMARK    3  A    between atoms: C_26  and  C_27
REMARK    4  A    between atoms: C_28  and  C_29
REMARK    5  A    between atoms: C_28  and  C_30
REMARK    6  A    between atoms: C_30  and  C_31
REMARK    7  A    between atoms: C_31  and  C_32
REMARK    8  A    between atoms: C_32  and  O_33
REMARK                            x       y       z     vdW  Elec       q    Type
REMARK                         _______ _______ _______ _____ _____    ______ ____
ROOT
ATOM      1  C   UNL     1       1.910  -0.349   2.555  0.00  0.00    +0.000 C 
ATOM      2  C   UNL     1       1.245  -1.611   1.939  0.00  0.00    +0.000 C 
ATOM      3  C   UNL     1      -0.277  -1.366   1.898  0.00  0.00    +0.000 C 
ATOM      4  C   UNL     1      -0.440   0.108   2.235  0.00  0.00    +0.000 C 
ATOM      5  C   UNL     1      -1.754   0.613   2.861  0.00  0.00    +0.000 C 
ATOM      6  C   UNL     1      -2.966   0.384   1.992  0.00  0.00    +0.000 C 
ATOM      7  O   UNL     1      -2.915  -0.183   0.906  0.00  0.00    +0.000 OA
ATOM      8  C   UNL     1      -4.270   0.871   2.582  0.00  0.00    +0.000 C 
ATOM      9  C   UNL     1      -4.183   2.371   2.912  0.00  0.00    +0.000 C 
ATOM     10  C   UNL     1      -4.188   3.172   1.596  0.00  0.00    +0.000 C 
ATOM     11  C   UNL     1      -3.981   4.649   1.825  0.00  0.00    +0.000 C 
ATOM     12  O   UNL     1      -4.643   5.490   1.221  0.00  0.00    +0.000 OA
ATOM     13  C   UNL     1      -2.825   5.039   2.709  0.00  0.00    +0.000 C 
ATOM     14  C   UNL     1      -2.895   4.258   4.013  0.00  0.00    +0.000 C 
ATOM     15  C   UNL     1      -2.959   2.714   3.820  0.00  0.00    +0.000 C 
ATOM     16  C   UNL     1      -3.162   2.102   5.230  0.00  0.00    +0.000 C 
ATOM     17  C   UNL     1      -1.665   2.155   3.148  0.00  0.00    +0.000 C 
ATOM     18  C   UNL     1      -0.390   2.559   3.894  0.00  0.00    +0.000 C 
ATOM     19  C   UNL     1       0.756   1.885   3.197  0.00  0.00    +0.000 C 
ATOM     20  O   UNL     1       1.629   2.532   2.622  0.00  0.00    +0.000 OA
ATOM     21  C   UNL     1       0.710   0.347   3.226  0.00  0.00    +0.000 C 
ATOM     22  C   UNL     1       0.398  -0.326   4.605  0.00  0.00    +0.000 C 
ENDROOT
BRANCH   1  23
ATOM     23  C   UNL     1       3.116  -0.688   3.490  0.00  0.00    +0.000 C 
ATOM     24  C   UNL     1       4.201  -1.454   2.713  0.00  0.00    +0.000 C 
BRANCH  23  25
ATOM     25  C   UNL     1       3.799   0.540   4.165  0.00  0.00    +0.000 C 
BRANCH  25  26
ATOM     26  C   UNL     1       2.980   1.311   5.196  0.00  0.00    +0.000 C 
BRANCH  26  27
ATOM     27  C   UNL     1       3.381   2.679   5.644  0.00  0.00    +0.000 C 
ATOM     28  O   UNL     1       2.583   3.417   6.224  0.00  0.00    +0.000 OA
BRANCH  27  29
ATOM     29  O   UNL     1       4.647   3.026   5.400  0.00  0.00    +0.000 OA
ATOM     30  H   UNL     1       5.135   2.364   4.879  0.00  0.00    +0.000 HD
ENDBRANCH  27  29
ENDBRANCH  26  27
ENDBRANCH  25  26
ENDBRANCH  23  25
ENDBRANCH   1  23
TORSDOF 5
