REMARK  Name = Delafloxacin
REMARK  5 active torsions:
REMARK  status: ('A' for Active; 'I' for Inactive)
REMARK    1  A    between atoms: C_4  and  N_5
REMARK    2  A    between atoms: C_7  and  C_8
REMARK    3  A    between atoms: C_8  and  O_9
REMARK    4  A    between atoms: C_17  and  N_18
REMARK    5  A    between atoms: C_20  and  O_21
REMARK                            x       y       z     vdW  Elec       q    Type
REMARK                         _______ _______ _______ _____ _____    ______ ____
ROOT
ATOM      1  N   UNL     1       5.304   2.412  -0.307  0.00  0.00    +0.000 N 
ATOM      2  C   UNL     1       5.036   3.357   0.761  0.00  0.00    +0.000 A 
ATOM      3  C   UNL     1       5.584   4.565   0.978  0.00  0.00    +0.000 A 
ATOM      4  C   UNL     1       6.548   4.974  -0.088  0.00  0.00    +0.000 A 
ATOM      5  O   UNL     1       7.122   6.038  -0.078  0.00  0.00    +0.000 OA
ATOM      6  C   UNL     1       6.832   4.042  -1.216  0.00  0.00    +0.000 A 
ATOM      7  C   UNL     1       7.556   4.541  -2.296  0.00  0.00    +0.000 A 
ATOM      8  C   UNL     1       7.717   3.839  -3.496  0.00  0.00    +0.000 A 
ATOM      9  F   UNL     1       6.570   3.741  -4.239  0.00  0.00    +0.000 F 
ATOM     10  C   UNL     1       8.137   2.556  -3.469  0.00  0.00    +0.000 A 
ATOM     11  C   UNL     1       7.082   1.956  -2.506  0.00  0.00    +0.000 A 
ATOM     12 CL   UNL     1       6.156   0.596  -3.090  0.00  0.00    +0.000 Cl
ATOM     13  C   UNL     1       6.405   2.731  -1.301  0.00  0.00    +0.000 A 
ENDROOT
BRANCH   1  17
ATOM     14  N   UNL     1       1.072   0.024  -0.023  0.00  0.00    +0.000 N 
ATOM     15  C   UNL     1       2.460   0.026  -0.084  0.00  0.00    +0.000 A 
ATOM     16  N   UNL     1       3.131   1.217  -0.114  0.00  0.00    +0.000 NA
ATOM     17  C   UNL     1       4.513   1.195  -0.207  0.00  0.00    +0.000 A 
ATOM     18  C   UNL     1       5.205  -0.005  -0.077  0.00  0.00    +0.000 A 
ATOM     19  F   UNL     1       6.541  -0.000   0.020  0.00  0.00    +0.000 F 
ATOM     20  C   UNL     1       4.526  -1.209  -0.043  0.00  0.00    +0.000 A 
ATOM     21  C   UNL     1       3.143  -1.193  -0.069  0.00  0.00    +0.000 A 
ATOM     22  F   UNL     1       2.475  -2.357  -0.089  0.00  0.00    +0.000 F 
ATOM     23  H   UNL     1       0.574   0.898  -0.104  0.00  0.00    +0.000 HD
ATOM     24  H   UNL     1       0.565  -0.849  -0.127  0.00  0.00    +0.000 HD
ENDBRANCH   1  17
BRANCH  10  25
ATOM     25  N   UNL     1       8.645   2.280  -4.913  0.00  0.00    +0.000 N 
ATOM     26  C   UNL     1       7.941   1.953  -6.142  0.00  0.00    +0.000 C 
ATOM     27  C   UNL     1       9.256   1.216  -6.532  0.00  0.00    +0.000 C 
ATOM     28  C   UNL     1       9.914   2.389  -5.737  0.00  0.00    +0.000 C 
BRANCH  27  29
ATOM     29  O   UNL     1       9.437  -0.070  -5.897  0.00  0.00    +0.000 OA
ATOM     30  H   UNL     1       9.270   0.168  -4.962  0.00  0.00    +0.000 HD
ENDBRANCH  27  29
ENDBRANCH  10  25
BRANCH   3  31
ATOM     31  C   UNL     1       5.349   5.526   2.130  0.00  0.00    +0.000 C 
ATOM     32  O   UNL     1       5.882   6.597   2.233  0.00  0.00    +0.000 OA
BRANCH  31  33
ATOM     33  O   UNL     1       4.491   5.124   3.107  0.00  0.00    +0.000 OA
ATOM     34  H   UNL     1       4.038   4.275   3.048  0.00  0.00    +0.000 HD
ENDBRANCH  31  33
ENDBRANCH   3  31
TORSDOF 5
