REMARK  Name = Delavirdine
REMARK  9 active torsions:
REMARK  status: ('A' for Active; 'I' for Inactive)
REMARK    1  A    between atoms: C_1  and  C_2
REMARK    2  A    between atoms: C_2  and  C_3
REMARK    3  A    between atoms: C_2  and  N_4
REMARK    4  A    between atoms: N_4  and  C_5
REMARK    5  A    between atoms: C_6  and  N_11
REMARK    6  A    between atoms: C_17  and  C_19
REMARK    7  A    between atoms: C_26  and  N_27
REMARK    8  A    between atoms: N_27  and  S_28
REMARK    9  A    between atoms: S_28  and  C_29
REMARK                            x       y       z     vdW  Elec       q    Type
REMARK                         _______ _______ _______ _____ _____    ______ ____
ROOT
ATOM      1  N   UNL     1       3.934   1.831   3.336  0.00  0.00    +0.000 N 
ATOM      2  C   UNL     1       3.829   3.046   4.149  0.00  0.00    +0.000 C 
ATOM      3  C   UNL     1       2.323   3.428   4.245  0.00  0.00    +0.000 C 
ATOM      4  N   UNL     1       1.508   2.280   4.728  0.00  0.00    +0.000 N 
ATOM      5  C   UNL     1       1.676   1.072   3.910  0.00  0.00    +0.000 C 
ATOM      6  C   UNL     1       3.167   0.683   3.815  0.00  0.00    +0.000 C 
ATOM      7  C   UNL     1       0.621   2.429   5.797  0.00  0.00    +0.000 C 
ATOM      8  O   UNL     1       0.494   3.512   6.365  0.00  0.00    +0.000 OA
ENDROOT
BRANCH   7   9
ATOM      9  C   UNL     1      -0.164   1.273   6.220  0.00  0.00    +0.000 A 
ATOM     10  C   UNL     1      -1.542   1.170   6.372  0.00  0.00    +0.000 A 
ATOM     11  C   UNL     1      -1.872  -0.155   6.792  0.00  0.00    +0.000 A 
ATOM     12  C   UNL     1      -0.660  -0.819   6.956  0.00  0.00    +0.000 A 
ATOM     13  N   UNL     1       0.350   0.074   6.669  0.00  0.00    +0.000 N 
ATOM     14  C   UNL     1      -0.590  -2.150   7.359  0.00  0.00    +0.000 A 
ATOM     15  C   UNL     1      -1.794  -2.822   7.583  0.00  0.00    +0.000 A 
ATOM     16  C   UNL     1      -3.038  -2.217   7.418  0.00  0.00    +0.000 A 
ATOM     17  C   UNL     1      -3.081  -0.863   7.033  0.00  0.00    +0.000 A 
ATOM     18  H   UNL     1       1.334  -0.136   6.755  0.00  0.00    +0.000 HD
BRANCH  16  19
ATOM     19  N   UNL     1      -4.259  -2.972   7.468  0.00  0.00    +0.000 N 
ATOM     20  H   UNL     1      -5.151  -2.477   7.476  0.00  0.00    +0.000 HD
BRANCH  19  21
ATOM     21  S   UNL     1      -4.357  -4.554   8.031  0.00  0.00    +0.000 S 
ATOM     22  C   UNL     1      -3.588  -5.495   6.714  0.00  0.00    +0.000 C 
ATOM     23  O   UNL     1      -3.578  -4.696   9.234  0.00  0.00    +0.000 OA
ATOM     24  O   UNL     1      -5.772  -4.894   8.024  0.00  0.00    +0.000 OA
ENDBRANCH  19  21
ENDBRANCH  16  19
ENDBRANCH   7   9
BRANCH   1  26
ATOM     25  C   UNL     1       4.323   1.409   0.965  0.00  0.00    +0.000 A 
ATOM     26  C   UNL     1       4.803   1.738   2.264  0.00  0.00    +0.000 A 
ATOM     27  N   UNL     1       6.122   2.000   2.478  0.00  0.00    +0.000 NA
ATOM     28  C   UNL     1       6.986   1.877   1.434  0.00  0.00    +0.000 A 
ATOM     29  C   UNL     1       6.613   1.541   0.155  0.00  0.00    +0.000 A 
ATOM     30  C   UNL     1       5.266   1.343  -0.068  0.00  0.00    +0.000 A 
BRANCH  25  31
ATOM     31  N   UNL     1       2.964   1.229   0.666  0.00  0.00    +0.000 N 
ATOM     32  H   UNL     1       2.354   1.718   1.309  0.00  0.00    +0.000 HD
BRANCH  31  34
ATOM     33  C   UNL     1       0.922   0.014   0.078  0.00  0.00    +0.000 C 
ATOM     34  C   UNL     1       2.453   0.017   0.015  0.00  0.00    +0.000 C 
ATOM     35  C   UNL     1       2.841  -0.021  -1.460  0.00  0.00    +0.000 C 
ENDBRANCH  31  34
ENDBRANCH  25  31
ENDBRANCH   1  26
TORSDOF 6
