REMARK  Name = Delamanid
REMARK  10 active torsions:
REMARK  status: ('A' for Active; 'I' for Inactive)
REMARK    1  A    between atoms: C_1  and  C_2
REMARK    2  A    between atoms: C_2  and  C_3
REMARK    3  A    between atoms: C_3  and  O_4
REMARK    4  A    between atoms: O_4  and  C_5
REMARK    5  A    between atoms: C_8  and  N_11
REMARK    6  A    between atoms: C_14  and  O_17
REMARK    7  A    between atoms: O_17  and  C_18
REMARK    8  A    between atoms: C_21  and  O_22
REMARK    9  A    between atoms: O_22  and  C_23
REMARK   10  A    between atoms: C_32  and  N_36
REMARK                            x       y       z     vdW  Elec       q    Type
REMARK                         _______ _______ _______ _____ _____    ______ ____
ROOT
ATOM      1  C   UNL     1      -0.817  -0.055  -1.646  0.00  0.00    +0.000 A 
ATOM      2  C   UNL     1      -1.359  -0.835  -2.663  0.00  0.00    +0.000 A 
ATOM      3  C   UNL     1      -2.716  -0.722  -3.000  0.00  0.00    +0.000 A 
ATOM      4  C   UNL     1      -3.582   0.135  -2.307  0.00  0.00    +0.000 A 
ATOM      5  C   UNL     1      -3.016   0.922  -1.299  0.00  0.00    +0.000 A 
ATOM      6  C   UNL     1      -1.651   0.825  -0.961  0.00  0.00    +0.000 A 
ENDROOT
BRANCH   4   7
ATOM      7  N   UNL     1      -4.930   0.153  -2.587  0.00  0.00    +0.000 N 
ATOM      8  C   UNL     1      -5.716  -1.070  -2.509  0.00  0.00    +0.000 C 
ATOM      9  C   UNL     1      -6.306  -1.337  -3.893  0.00  0.00    +0.000 C 
ATOM     10  C   UNL     1      -7.221  -0.178  -4.320  0.00  0.00    +0.000 C 
ATOM     11  C   UNL     1      -6.371   1.121  -4.296  0.00  0.00    +0.000 C 
ATOM     12  C   UNL     1      -5.688   1.353  -2.932  0.00  0.00    +0.000 C 
BRANCH  10  13
ATOM     13  O   UNL     1      -8.390   0.055  -3.498  0.00  0.00    +0.000 OA
BRANCH  13  14
ATOM     14  C   UNL     1      -9.318  -0.944  -3.364  0.00  0.00    +0.000 A 
ATOM     15  C   UNL     1     -10.658  -0.652  -3.612  0.00  0.00    +0.000 A 
ATOM     16  C   UNL     1     -11.663  -1.575  -3.260  0.00  0.00    +0.000 A 
ATOM     17  C   UNL     1     -11.334  -2.834  -2.745  0.00  0.00    +0.000 A 
ATOM     18  C   UNL     1      -9.999  -3.116  -2.500  0.00  0.00    +0.000 A 
ATOM     19  C   UNL     1      -9.021  -2.161  -2.761  0.00  0.00    +0.000 A 
BRANCH  17  20
ATOM     20  O   UNL     1     -12.367  -3.694  -2.500  0.00  0.00    +0.000 OA
BRANCH  20  21
ATOM     21  C   UNL     1     -12.011  -5.012  -2.089  0.00  0.00    +0.000 C 
ATOM     22  F   UNL     1     -11.196  -5.607  -2.989  0.00  0.00    +0.000 F 
ATOM     23  F   UNL     1     -11.404  -4.996  -0.881  0.00  0.00    +0.000 F 
ATOM     24  F   UNL     1     -13.129  -5.762  -1.983  0.00  0.00    +0.000 F 
ENDBRANCH  20  21
ENDBRANCH  17  20
ENDBRANCH  13  14
ENDBRANCH  10  13
ENDBRANCH   4   7
BRANCH   1  25
ATOM     25  O   UNL     1       0.540  -0.149  -1.489  0.00  0.00    +0.000 OA
BRANCH  25  26
ATOM     26  C   UNL     1       1.042  -0.000  -0.160  0.00  0.00    +0.000 C 
BRANCH  26  28
ATOM     27  C   UNL     1       3.049   0.006   1.310  0.00  0.00    +0.000 C 
ATOM     28  C   UNL     1       2.591  -0.059  -0.156  0.00  0.00    +0.000 C 
ATOM     29  C   UNL     1       3.089  -1.370  -0.812  0.00  0.00    +0.000 C 
ATOM     30  N   UNL     1       3.849  -0.862  -1.916  0.00  0.00    +0.000 N 
ATOM     31  C   UNL     1       4.560  -1.368  -2.928  0.00  0.00    +0.000 A 
ATOM     32  C   UNL     1       5.020  -0.232  -3.583  0.00  0.00    +0.000 A 
ATOM     33  N   UNL     1       4.587   0.945  -2.935  0.00  0.00    +0.000 NA
ATOM     34  C   UNL     1       3.873   0.483  -1.933  0.00  0.00    +0.000 A 
ATOM     35  O   UNL     1       3.191   1.051  -0.936  0.00  0.00    +0.000 OA
BRANCH  32  36
ATOM     36  N   UNL     1       5.850  -0.242  -4.778  0.00  0.00    +0.000 N 
ATOM     37  O   UNL     1       6.156  -1.370  -5.217  0.00  0.00    +0.000 OA
ATOM     38  O   UNL     1       6.197   0.831  -5.272  0.00  0.00    +0.000 OA
ENDBRANCH  32  36
ENDBRANCH  26  28
ENDBRANCH  25  26
ENDBRANCH   1  25
TORSDOF 9
