REMARK  Name = Demecarium
REMARK  25 active torsions:
REMARK  status: ('A' for Active; 'I' for Inactive)
REMARK    1  A    between atoms: C_1  and  N_2
REMARK    2  A    between atoms: N_2  and  C_3
REMARK    3  A    between atoms: C_3  and  C_4
REMARK    4  A    between atoms: C_4  and  C_5
REMARK    5  A    between atoms: C_5  and  C_6
REMARK    6  A    between atoms: C_6  and  C_7
REMARK    7  A    between atoms: C_7  and  C_8
REMARK    8  A    between atoms: C_8  and  C_9
REMARK    9  A    between atoms: C_9  and  C_10
REMARK   10  A    between atoms: C_10  and  C_11
REMARK   11  A    between atoms: C_11  and  C_12
REMARK   12  A    between atoms: C_12  and  N_13
REMARK   13  A    between atoms: N_13  and  C_14
REMARK   14  A    between atoms: C_15  and  O_17
REMARK   15  A    between atoms: O_17  and  C_18
REMARK   16  A    between atoms: C_22  and  N_24
REMARK   17  A    between atoms: N_24  and  C_25
REMARK   18  A    between atoms: N_24  and  C_26
REMARK   19  A    between atoms: N_24  and  C_27
REMARK   20  A    between atoms: C_28  and  O_30
REMARK   21  A    between atoms: O_30  and  C_31
REMARK   22  A    between atoms: C_35  and  N_37
REMARK   23  A    between atoms: N_37  and  C_38
REMARK   24  A    between atoms: N_37  and  C_39
REMARK   25  A    between atoms: N_37  and  C_40
REMARK                            x       y       z     vdW  Elec       q    Type
REMARK                         _______ _______ _______ _____ _____    ______ ____
ROOT
ATOM      1  C   UNL     1       2.760  -6.125  -1.564  0.00  0.00    +0.000 C 
ENDROOT
BRANCH   1   2
ATOM      2  C   UNL     1       1.764  -7.233  -1.850  0.00  0.00    +0.000 C 
BRANCH   2   3
ATOM      3  C   UNL     1       2.501  -8.514  -2.182  0.00  0.00    +0.000 C 
BRANCH   3   4
ATOM      4  C   UNL     1       1.502  -9.628  -2.470  0.00  0.00    +0.000 C 
BRANCH   4   5
ATOM      5  C   UNL     1       2.265 -10.895  -2.797  0.00  0.00    +0.000 C 
BRANCH   5   6
ATOM      6  C   UNL     1       1.367 -12.091  -3.100  0.00  0.00    +0.000 C 
BRANCH   6   7
ATOM      7  N   UNL     1       2.085 -13.350  -3.373  0.00  0.00    +0.000 N 
ATOM      8  C   UNL     1       3.539 -13.385  -3.421  0.00  0.00    +0.000 C 
ATOM      9  C   UNL     1       1.336 -14.512  -3.611  0.00  0.00    +0.000 C 
ATOM     10  O   UNL     1       0.122 -14.522  -3.692  0.00  0.00    +0.000 OA
BRANCH   9  11
ATOM     11  O   UNL     1       2.141 -15.675  -3.786  0.00  0.00    +0.000 OA
BRANCH  11  12
ATOM     12  C   UNL     1       1.571 -16.854  -4.349  0.00  0.00    +0.000 A 
ATOM     13  C   UNL     1       1.855 -18.095  -3.783  0.00  0.00    +0.000 A 
ATOM     14  C   UNL     1       1.222 -19.219  -4.311  0.00  0.00    +0.000 A 
ATOM     15  C   UNL     1       0.233 -19.075  -5.307  0.00  0.00    +0.000 A 
ATOM     16  C   UNL     1      -0.044 -17.826  -5.929  0.00  0.00    +0.000 A 
ATOM     17  C   UNL     1       0.738 -16.746  -5.480  0.00  0.00    +0.000 A 
BRANCH  16  18
ATOM     18  N   UNL     1      -1.480 -17.503  -6.467  0.00  0.00    +0.000 NA
ATOM     19  C   UNL     1      -2.021 -16.638  -5.289  0.00  0.00    +0.000 C 
ATOM     20  C   UNL     1      -2.190 -18.792  -6.951  0.00  0.00    +0.000 C 
ATOM     21  C   UNL     1      -1.736 -16.523  -7.631  0.00  0.00    +0.000 C 
ENDBRANCH  16  18
ENDBRANCH  11  12
ENDBRANCH   9  11
ENDBRANCH   6   7
ENDBRANCH   5   6
ENDBRANCH   4   5
ENDBRANCH   3   4
ENDBRANCH   2   3
ENDBRANCH   1   2
BRANCH   1  22
ATOM     22  C   UNL     1       2.024  -4.843  -1.233  0.00  0.00    +0.000 C 
BRANCH  22  23
ATOM     23  C   UNL     1       3.031  -3.736  -0.948  0.00  0.00    +0.000 C 
BRANCH  23  24
ATOM     24  C   UNL     1       2.283  -2.465  -0.621  0.00  0.00    +0.000 C 
BRANCH  24  25
ATOM     25  C   UNL     1       3.201  -1.283  -0.324  0.00  0.00    +0.000 C 
BRANCH  25  27
ATOM     26  C   UNL     1       1.029   0.003   0.017  0.00  0.00    +0.000 C 
ATOM     27  N   UNL     1       2.489  -0.038  -0.015  0.00  0.00    +0.000 N 
ATOM     28  C   UNL     1       3.136   1.167   0.236  0.00  0.00    +0.000 C 
ATOM     29  O   UNL     1       2.503   2.191   0.539  0.00  0.00    +0.000 OA
BRANCH  28  30
ATOM     30  O   UNL     1       4.537   1.138   0.148  0.00  0.00    +0.000 OA
BRANCH  30  31
ATOM     31  C   UNL     1       5.260   2.296   0.551  0.00  0.00    +0.000 A 
ATOM     32  C   UNL     1       6.419   2.637  -0.133  0.00  0.00    +0.000 A 
ATOM     33  C   UNL     1       7.187   3.704   0.336  0.00  0.00    +0.000 A 
ATOM     34  C   UNL     1       6.777   4.452   1.456  0.00  0.00    +0.000 A 
ATOM     35  C   UNL     1       5.624   4.106   2.183  0.00  0.00    +0.000 A 
ATOM     36  C   UNL     1       4.894   3.005   1.706  0.00  0.00    +0.000 A 
BRANCH  35  37
ATOM     37  N   UNL     1       5.344   4.650   3.603  0.00  0.00    +0.000 NA
ATOM     38  C   UNL     1       6.014   3.682   4.567  0.00  0.00    +0.000 C 
ATOM     39  C   UNL     1       5.954   6.040   3.855  0.00  0.00    +0.000 C 
ATOM     40  C   UNL     1       3.842   4.613   3.988  0.00  0.00    +0.000 C 
ENDBRANCH  35  37
ENDBRANCH  30  31
ENDBRANCH  28  30
ENDBRANCH  25  27
ENDBRANCH  24  25
ENDBRANCH  23  24
ENDBRANCH  22  23
ENDBRANCH   1  22
TORSDOF 17
