REMARK  Name = Demeclocycline
REMARK  9 active torsions:
REMARK  status: ('A' for Active; 'I' for Inactive)
REMARK    1  A    between atoms: C_6  and  N_7
REMARK    2  A    between atoms: N_7  and  C_8
REMARK    3  A    between atoms: N_7  and  C_9
REMARK    4  A    between atoms: C_10  and  O_11
REMARK    5  A    between atoms: C_12  and  C_13
REMARK    6  A    between atoms: C_18  and  O_19
REMARK    7  A    between atoms: C_20  and  O_21
REMARK    8  A    between atoms: C_27  and  O_28
REMARK    9  A    between atoms: C_33  and  O_34
REMARK                            x       y       z     vdW  Elec       q    Type
REMARK                         _______ _______ _______ _____ _____    ______ ____
ROOT
ATOM      1  C   UNL     1       2.067   0.002  -0.076  0.00  0.00    +0.000 C 
ATOM      2  C   UNL     1       2.570   1.438  -0.103  0.00  0.00    +0.000 C 
ATOM      3  C   UNL     1       2.098   2.135   1.164  0.00  0.00    +0.000 C 
ATOM      4  C   UNL     1       0.595   2.387   1.074  0.00  0.00    +0.000 C 
ATOM      5  C   UNL     1       0.175   3.213   2.278  0.00  0.00    +0.000 C 
ATOM      6  C   UNL     1      -0.093   2.269   3.161  0.00  0.00    +0.000 C 
ATOM      7  C   UNL     1       1.637   2.353   3.291  0.00  0.00    +0.000 C 
ATOM      8  O   UNL     1       2.391   3.232   3.783  0.00  0.00    +0.000 OA
ATOM      9  C   UNL     1       2.495   1.344   2.557  0.00  0.00    +0.000 C 
ATOM     10  C   UNL     1       2.827  -0.087   2.290  0.00  0.00    +0.000 C 
ATOM     11  C   UNL     1       2.525  -0.700   1.152  0.00  0.00    +0.000 C 
ATOM     12  C   UNL     1       2.298  -2.175   1.184  0.00  0.00    +0.000 C 
ATOM     13  O   UNL     1       1.842  -2.692   2.149  0.00  0.00    +0.000 OA
ATOM     14  C   UNL     1       2.347  -2.850  -0.153  0.00  0.00    +0.000 A 
ATOM     15  C   UNL     1       2.306  -2.113  -1.366  0.00  0.00    +0.000 A 
ATOM     16  C   UNL     1       2.543  -0.634  -1.356  0.00  0.00    +0.000 C 
ATOM     17  C   UNL     1       2.115  -2.801  -2.566  0.00  0.00    +0.000 A 
ATOM     18 CL   UNL     1       2.021  -2.044  -4.120  0.00  0.00    +0.000 Cl
ATOM     19  C   UNL     1       1.957  -4.179  -2.550  0.00  0.00    +0.000 A 
ATOM     20  C   UNL     1       2.058  -4.901  -1.361  0.00  0.00    +0.000 A 
ATOM     21  C   UNL     1       2.275  -4.241  -0.162  0.00  0.00    +0.000 A 
ENDROOT
BRANCH   6  22
ATOM     22  C   UNL     1      -1.642   2.786   3.332  0.00  0.00    +0.000 C 
ATOM     23  N   UNL     1      -2.733   2.608   2.400  0.00  0.00    +0.000 N 
ATOM     24  O   UNL     1      -2.040   3.336   4.360  0.00  0.00    +0.000 OA
ATOM     25  H   UNL     1      -3.642   2.996   2.673  0.00  0.00    +0.000 HD
ATOM     26  H   UNL     1      -2.929   2.200   1.489  0.00  0.00    +0.000 HD
ENDBRANCH   6  22
BRANCH   4  27
ATOM     27  N   UNL     1       0.075   2.947  -0.160  0.00  0.00    +0.000 NA
ATOM     28  C   UNL     1      -0.059   4.396   0.046  0.00  0.00    +0.000 C 
ATOM     29  C   UNL     1      -1.228   2.358  -0.434  0.00  0.00    +0.000 C 
ENDBRANCH   4  27
BRANCH   5  30
ATOM     30  O   UNL     1       0.844   4.443   2.628  0.00  0.00    +0.000 OA
ATOM     31  H   UNL     1       1.790   4.330   2.937  0.00  0.00    +0.000 HD
ENDBRANCH   5  30
BRANCH   9  32
ATOM     32  O   UNL     1       1.862   0.954   4.019  0.00  0.00    +0.000 OA
ATOM     33  H   UNL     1       2.029   1.603   4.782  0.00  0.00    +0.000 HD
ENDBRANCH   9  32
BRANCH  10  34
ATOM     34  O   UNL     1       3.451  -0.751   3.343  0.00  0.00    +0.000 OA
ATOM     35  H   UNL     1       3.393  -0.147   4.109  0.00  0.00    +0.000 HD
ENDBRANCH  10  34
BRANCH  16  36
ATOM     36  O   UNL     1       1.815   0.060  -2.367  0.00  0.00    +0.000 OA
ATOM     37  H   UNL     1       0.904  -0.283  -2.367  0.00  0.00    +0.000 HD
ENDBRANCH  16  36
BRANCH  21  38
ATOM     38  O   UNL     1       2.432  -4.946   0.993  0.00  0.00    +0.000 OA
ATOM     39  H   UNL     1       2.238  -5.886   0.880  0.00  0.00    +0.000 HD
ENDBRANCH  21  38
TORSDOF 7
