REMARK  Name = Deoxycholic acid
REMARK  10 active torsions:
REMARK  status: ('A' for Active; 'I' for Inactive)
REMARK    1  A    between atoms: C_5  and  C_6
REMARK    2  A    between atoms: C_6  and  C_7
REMARK    3  A    between atoms: C_6  and  C_8
REMARK    4  A    between atoms: C_8  and  C_9
REMARK    5  A    between atoms: C_9  and  C_10
REMARK    6  A    between atoms: C_10  and  O_11
REMARK    7  A    between atoms: C_13  and  C_14
REMARK    8  A    between atoms: C_15  and  O_16
REMARK    9  A    between atoms: C_27  and  O_28
REMARK   10  A    between atoms: C_31  and  C_32
REMARK                            x       y       z     vdW  Elec       q    Type
REMARK                         _______ _______ _______ _____ _____    ______ ____
ROOT
ATOM      1  C   UNL     1       2.129   6.142  -2.193  0.00  0.00    +0.000 C 
ATOM      2  C   UNL     1       3.510   6.437  -2.808  0.00  0.00    +0.000 C 
ATOM      3  C   UNL     1       4.168   5.029  -2.945  0.00  0.00    +0.000 C 
ATOM      4  C   UNL     1       3.073   3.974  -2.558  0.00  0.00    +0.000 C 
ATOM      5  C   UNL     1       1.742   4.778  -2.779  0.00  0.00    +0.000 C 
ATOM      6  C   UNL     1       1.525   4.947  -4.316  0.00  0.00    +0.000 C 
ATOM      7  C   UNL     1       0.407   4.250  -2.187  0.00  0.00    +0.000 C 
ATOM      8  C   UNL     1      -0.675   5.322  -2.207  0.00  0.00    +0.000 C 
ATOM      9  C   UNL     1      -0.222   6.627  -1.498  0.00  0.00    +0.000 C 
ATOM     10  C   UNL     1       1.054   7.216  -2.179  0.00  0.00    +0.000 C 
ATOM     11  C   UNL     1       1.556   8.434  -1.386  0.00  0.00    +0.000 C 
ATOM     12  C   UNL     1       0.477   9.493  -1.245  0.00  0.00    +0.000 C 
ATOM     13  C   UNL     1      -0.818   8.946  -0.620  0.00  0.00    +0.000 C 
ATOM     14  C   UNL     1      -0.616   8.714   0.894  0.00  0.00    +0.000 C 
ATOM     15  C   UNL     1      -1.881   8.190   1.564  0.00  0.00    +0.000 C 
ATOM     16  C   UNL     1      -2.324   6.888   0.910  0.00  0.00    +0.000 C 
ATOM     17  C   UNL     1      -2.579   7.112  -0.579  0.00  0.00    +0.000 C 
ATOM     18  C   UNL     1      -1.357   7.679  -1.361  0.00  0.00    +0.000 C 
ATOM     19  C   UNL     1      -1.850   8.071  -2.771  0.00  0.00    +0.000 C 
ENDROOT
BRANCH   4  20
ATOM     20  C   UNL     1       3.375   3.311  -1.156  0.00  0.00    +0.000 C 
ATOM     21  C   UNL     1       2.578   1.996  -0.987  0.00  0.00    +0.000 C 
BRANCH  20  22
ATOM     22  C   UNL     1       3.237   4.205   0.109  0.00  0.00    +0.000 C 
BRANCH  22  23
ATOM     23  C   UNL     1       4.169   5.415   0.189  0.00  0.00    +0.000 C 
BRANCH  23  24
ATOM     24  C   UNL     1       3.739   6.616   0.998  0.00  0.00    +0.000 C 
ATOM     25  O   UNL     1       4.301   7.710   0.881  0.00  0.00    +0.000 OA
BRANCH  24  26
ATOM     26  O   UNL     1       2.639   6.482   1.756  0.00  0.00    +0.000 OA
ATOM     27  H   UNL     1       2.242   5.594   1.762  0.00  0.00    +0.000 HD
ENDBRANCH  24  26
ENDBRANCH  23  24
ENDBRANCH  22  23
ENDBRANCH  20  22
ENDBRANCH   4  20
BRANCH   7  28
ATOM     28  O   UNL     1       0.421   3.798  -0.840  0.00  0.00    +0.000 OA
ATOM     29  H   UNL     1       0.392   4.546  -0.231  0.00  0.00    +0.000 HD
ENDBRANCH   7  28
BRANCH  15  30
ATOM     30  O   UNL     1      -1.656   7.981   2.952  0.00  0.00    +0.000 OA
ATOM     31  H   UNL     1      -0.837   7.469   3.059  0.00  0.00    +0.000 HD
ENDBRANCH  15  30
TORSDOF 7
