REMARK  Name = Dequalinium
REMARK  15 active torsions:
REMARK  status: ('A' for Active; 'I' for Inactive)
REMARK    1  A    between atoms: C_1  and  C_2
REMARK    2  A    between atoms: C_4  and  N_5
REMARK    3  A    between atoms: N_12  and  C_13
REMARK    4  A    between atoms: C_13  and  C_14
REMARK    5  A    between atoms: C_14  and  C_15
REMARK    6  A    between atoms: C_15  and  C_16
REMARK    7  A    between atoms: C_16  and  C_17
REMARK    8  A    between atoms: C_17  and  C_18
REMARK    9  A    between atoms: C_18  and  C_19
REMARK   10  A    between atoms: C_19  and  C_20
REMARK   11  A    between atoms: C_20  and  C_21
REMARK   12  A    between atoms: C_21  and  C_22
REMARK   13  A    between atoms: C_22  and  N_23
REMARK   14  A    between atoms: C_24  and  C_25
REMARK   15  A    between atoms: C_27  and  N_28
REMARK                            x       y       z     vdW  Elec       q    Type
REMARK                         _______ _______ _______ _____ _____    ______ ____
ROOT
ATOM      1  C   UNL     1      -2.133   4.648   0.090  0.00  0.00    +0.000 C 
ENDROOT
BRANCH   1   2
ATOM      2  C   UNL     1      -1.311   3.391   0.073  0.00  0.00    +0.000 C 
BRANCH   2   3
ATOM      3  C   UNL     1       0.163   3.782   0.079  0.00  0.00    +0.000 C 
BRANCH   3   4
ATOM      4  C   UNL     1       0.919   2.490   0.065  0.00  0.00    +0.000 C 
BRANCH   4   5
ATOM      5  C   UNL     1       2.412   2.542   0.079  0.00  0.00    +0.000 C 
BRANCH   5  16
ATOM      6  C   UNL     1       0.925  -0.262   0.034  0.00  0.00    +0.000 C 
ATOM      7  C   UNL     1       2.423  -0.027   0.072  0.00  0.00    +0.000 A 
ATOM      8  C   UNL     1       3.148  -1.220   0.061  0.00  0.00    +0.000 A 
ATOM      9  C   UNL     1       4.524  -1.254   0.077  0.00  0.00    +0.000 A 
ATOM     10  C   UNL     1       5.197  -0.030   0.034  0.00  0.00    +0.000 A 
ATOM     11  C   UNL     1       6.596   0.006  -0.100  0.00  0.00    +0.000 A 
ATOM     12  C   UNL     1       7.272   1.198  -0.327  0.00  0.00    +0.000 A 
ATOM     13  C   UNL     1       6.600   2.398  -0.204  0.00  0.00    +0.000 A 
ATOM     14  C   UNL     1       5.225   2.400   0.043  0.00  0.00    +0.000 A 
ATOM     15  C   UNL     1       4.475   1.198   0.074  0.00  0.00    +0.000 A 
ATOM     16  N   UNL     1       3.087   1.185   0.096  0.00  0.00    +0.000 N 
BRANCH   9  17
ATOM     17  N   UNL     1       5.129  -2.488  -0.150  0.00  0.00    +0.000 N 
ATOM     18  H   UNL     1       4.595  -3.327   0.064  0.00  0.00    +0.000 HD
ATOM     19  H   UNL     1       6.114  -2.600   0.064  0.00  0.00    +0.000 HD
ENDBRANCH   9  17
ENDBRANCH   5  16
ENDBRANCH   4   5
ENDBRANCH   3   4
ENDBRANCH   2   3
ENDBRANCH   1   2
BRANCH   1  20
ATOM     20  C   UNL     1      -3.594   4.281   0.086  0.00  0.00    +0.000 C 
BRANCH  20  21
ATOM     21  C   UNL     1      -4.421   5.535   0.103  0.00  0.00    +0.000 C 
BRANCH  21  22
ATOM     22  C   UNL     1      -5.892   5.131   0.101  0.00  0.00    +0.000 C 
BRANCH  22  23
ATOM     23  C   UNL     1      -6.669   6.408   0.103  0.00  0.00    +0.000 C 
BRANCH  23  24
ATOM     24  C   UNL     1      -8.153   6.350   0.125  0.00  0.00    +0.000 C 
BRANCH  24  25
ATOM     25  N   UNL     1      -8.801   7.715   0.180  0.00  0.00    +0.000 N 
ATOM     26  C   UNL     1      -8.121   8.918   0.132  0.00  0.00    +0.000 A 
ATOM     27  C   UNL     1      -6.630   9.223   0.030  0.00  0.00    +0.000 C 
ATOM     28  C   UNL     1      -8.855  10.117   0.145  0.00  0.00    +0.000 A 
ATOM     29  C   UNL     1     -10.227  10.160   0.222  0.00  0.00    +0.000 A 
ATOM     30  C   UNL     1     -10.911   8.946   0.211  0.00  0.00    +0.000 A 
ATOM     31  C   UNL     1     -10.188   7.712   0.219  0.00  0.00    +0.000 A 
ATOM     32  C   UNL     1     -10.951   6.516   0.220  0.00  0.00    +0.000 A 
ATOM     33  C   UNL     1     -12.332   6.520   0.037  0.00  0.00    +0.000 A 
ATOM     34  C   UNL     1     -13.007   7.725  -0.055  0.00  0.00    +0.000 A 
ATOM     35  C   UNL     1     -12.313   8.910   0.141  0.00  0.00    +0.000 A 
BRANCH  29  36
ATOM     36  N   UNL     1     -10.842  11.399   0.023  0.00  0.00    +0.000 N 
ATOM     37  H   UNL     1     -10.299  12.238   0.211  0.00  0.00    +0.000 HD
ATOM     38  H   UNL     1     -11.815  11.511   0.279  0.00  0.00    +0.000 HD
ENDBRANCH  29  36
ENDBRANCH  24  25
ENDBRANCH  23  24
ENDBRANCH  22  23
ENDBRANCH  21  22
ENDBRANCH  20  21
ENDBRANCH   1  20
TORSDOF 13
