REMARK  Name = Deserpidine
REMARK  14 active torsions:
REMARK  status: ('A' for Active; 'I' for Inactive)
REMARK    1  A    between atoms: C_4  and  O_5
REMARK    2  A    between atoms: O_5  and  C_6
REMARK    3  A    between atoms: C_6  and  C_8
REMARK    4  A    between atoms: C_10  and  O_11
REMARK    5  A    between atoms: O_11  and  C_12
REMARK    6  A    between atoms: C_13  and  O_14
REMARK    7  A    between atoms: O_14  and  C_15
REMARK    8  A    between atoms: C_16  and  O_17
REMARK    9  A    between atoms: O_17  and  C_18
REMARK   10  A    between atoms: C_20  and  O_21
REMARK   11  A    between atoms: O_21  and  C_22
REMARK   12  A    between atoms: C_23  and  C_24
REMARK   13  A    between atoms: C_24  and  O_26
REMARK   14  A    between atoms: O_26  and  C_27
REMARK                            x       y       z     vdW  Elec       q    Type
REMARK                         _______ _______ _______ _____ _____    ______ ____
ROOT
ATOM      1  C   UNL     1       1.860   0.159  -0.169  0.00  0.00    +0.000 C 
ATOM      2  C   UNL     1       2.628  -0.265  -1.381  0.00  0.00    +0.000 C 
ATOM      3  C   UNL     1       4.360  -0.083  -1.052  0.00  0.00    +0.000 C 
ATOM      4  C   UNL     1       4.158  -1.469  -1.294  0.00  0.00    +0.000 C 
ATOM      5  C   UNL     1       3.550  -1.315   0.609  0.00  0.00    +0.000 C 
ATOM      6  C   UNL     1       2.166  -0.827   0.912  0.00  0.00    +0.000 C 
ATOM      7  C   UNL     1       1.944  -0.064   2.271  0.00  0.00    +0.000 C 
ATOM      8  C   UNL     1       2.636   1.324   2.372  0.00  0.00    +0.000 C 
ATOM      9  N   UNL     1       2.402   2.187   1.257  0.00  0.00    +0.000 NA
ATOM     10  C   UNL     1       3.185   3.438   1.338  0.00  0.00    +0.000 C 
ATOM     11  C   UNL     1       2.382   4.206   2.393  0.00  0.00    +0.000 C 
ATOM     12  C   UNL     1       2.230   3.387   3.643  0.00  0.00    +0.000 A 
ATOM     13  C   UNL     1       2.324   2.023   3.617  0.00  0.00    +0.000 A 
ATOM     14  N   UNL     1       2.272   1.520   4.882  0.00  0.00    +0.000 N 
ATOM     15  C   UNL     1       1.918   2.547   5.720  0.00  0.00    +0.000 A 
ATOM     16  C   UNL     1       1.620   2.536   7.078  0.00  0.00    +0.000 A 
ATOM     17  C   UNL     1       1.209   3.755   7.620  0.00  0.00    +0.000 A 
ATOM     18  C   UNL     1       1.129   4.919   6.849  0.00  0.00    +0.000 A 
ATOM     19  C   UNL     1       1.468   4.914   5.507  0.00  0.00    +0.000 A 
ATOM     20  C   UNL     1       1.866   3.711   4.944  0.00  0.00    +0.000 A 
ATOM     21  C   UNL     1       2.278   1.617  -0.022  0.00  0.00    +0.000 C 
ATOM     22  H   UNL     1       2.444   0.562   5.171  0.00  0.00    +0.000 HD
ENDROOT
BRANCH   4  23
ATOM     23  O   UNL     1       4.507  -0.919  -2.832  0.00  0.00    +0.000 OA
ATOM     24  C   UNL     1       5.970  -0.776  -3.097  0.00  0.00    +0.000 C 
ENDBRANCH   4  23
BRANCH   5  25
ATOM     25  C   UNL     1       4.185  -0.809   2.522  0.00  0.00    +0.000 C 
ATOM     26  O   UNL     1       4.075  -1.434   3.530  0.00  0.00    +0.000 OA
BRANCH  25  27
ATOM     27  O   UNL     1       4.933   0.275   2.942  0.00  0.00    +0.000 OA
ATOM     28  C   UNL     1       5.133   0.414   4.388  0.00  0.00    +0.000 C 
ENDBRANCH  25  27
ENDBRANCH   5  25
BRANCH   3  29
ATOM     29  O   UNL     1       5.623  -0.818  -0.565  0.00  0.00    +0.000 OA
BRANCH  29  30
ATOM     30  C   UNL     1       5.591  -0.803   0.757  0.00  0.00    +0.000 C 
ATOM     31  O   UNL     1       5.261   0.373   0.975  0.00  0.00    +0.000 OA
BRANCH  30  32
ATOM     32  C   UNL     1       5.234  -2.519   1.578  0.00  0.00    +0.000 A 
ATOM     33  C   UNL     1       3.986  -3.264   2.507  0.00  0.00    +0.000 A 
ATOM     34  C   UNL     1       4.212  -3.857   3.812  0.00  0.00    +0.000 A 
ATOM     35  C   UNL     1       5.571  -3.948   4.100  0.00  0.00    +0.000 A 
ATOM     36  C   UNL     1       6.602  -3.374   3.240  0.00  0.00    +0.000 A 
ATOM     37  C   UNL     1       6.425  -2.666   2.073  0.00  0.00    +0.000 A 
BRANCH  34  38
ATOM     38  O   UNL     1       3.190  -3.957   4.789  0.00  0.00    +0.000 OA
ATOM     39  C   UNL     1       3.487  -4.818   5.923  0.00  0.00    +0.000 C 
ENDBRANCH  34  38
BRANCH  35  40
ATOM     40  O   UNL     1       5.884  -4.566   5.279  0.00  0.00    +0.000 OA
ATOM     41  C   UNL     1       7.206  -5.023   5.379  0.00  0.00    +0.000 C 
ENDBRANCH  35  40
BRANCH  36  42
ATOM     42  O   UNL     1       7.923  -3.424   3.612  0.00  0.00    +0.000 OA
ATOM     43  C   UNL     1       8.835  -2.863   2.671  0.00  0.00    +0.000 C 
ENDBRANCH  36  42
ENDBRANCH  30  32
ENDBRANCH  29  30
ENDBRANCH   3  29
TORSDOF 9
