REMARK  Name = Desflurane
REMARK  3 active torsions:
REMARK  status: ('A' for Active; 'I' for Inactive)
REMARK    1  A    between atoms: C_2  and  O_4
REMARK    2  A    between atoms: O_4  and  C_5
REMARK    3  A    between atoms: C_5  and  C_7
REMARK                            x       y       z     vdW  Elec       q    Type
REMARK                         _______ _______ _______ _____ _____    ______ ____
ROOT
ATOM      1  C   UNL     1       4.260   0.976  -0.803  0.00  0.00    +0.000 C 
ATOM      2  F   UNL     1       4.745  -0.214  -1.249  0.00  0.00    +0.000 F 
ENDROOT
BRANCH   1   3
ATOM      3  C   UNL     1       4.781   2.116  -1.686  0.00  0.00    +0.000 C 
ATOM      4  F   UNL     1       4.379   2.006  -2.971  0.00  0.00    +0.000 F 
ATOM      5  F   UNL     1       4.356   3.318  -1.223  0.00  0.00    +0.000 F 
ATOM      6  F   UNL     1       6.136   2.153  -1.680  0.00  0.00    +0.000 F 
ENDBRANCH   1   3
BRANCH   1   7
ATOM      7  O   UNL     1       2.838   0.899  -0.818  0.00  0.00    +0.000 OA
BRANCH   7   9
ATOM      8  F   UNL     1       1.028  -0.054   0.047  0.00  0.00    +0.000 F 
ATOM      9  C   UNL     1       2.382  -0.105   0.057  0.00  0.00    +0.000 C 
ATOM     10  F   UNL     1       2.734  -1.313  -0.428  0.00  0.00    +0.000 F 
ENDBRANCH   7   9
ENDBRANCH   1   7
TORSDOF 3
