REMARK  Name = Desipramine
REMARK  5 active torsions:
REMARK  status: ('A' for Active; 'I' for Inactive)
REMARK    1  A    between atoms: C_1  and  N_2
REMARK    2  A    between atoms: N_2  and  C_3
REMARK    3  A    between atoms: C_3  and  C_4
REMARK    4  A    between atoms: C_4  and  C_5
REMARK    5  A    between atoms: C_5  and  N_6
REMARK                            x       y       z     vdW  Elec       q    Type
REMARK                         _______ _______ _______ _____ _____    ______ ____
ROOT
ATOM      1  N   UNL     1       6.459   1.960   2.150  0.00  0.00    +0.000 N 
ATOM      2  C   UNL     1       7.124   1.884   3.386  0.00  0.00    +0.000 A 
ATOM      3  C   UNL     1       6.831   2.849   4.371  0.00  0.00    +0.000 A 
ATOM      4  C   UNL     1       7.557   2.918   5.561  0.00  0.00    +0.000 A 
ATOM      5  C   UNL     1       8.583   2.015   5.795  0.00  0.00    +0.000 A 
ATOM      6  C   UNL     1       8.879   1.041   4.842  0.00  0.00    +0.000 A 
ATOM      7  C   UNL     1       8.160   0.957   3.632  0.00  0.00    +0.000 A 
ATOM      8  C   UNL     1       8.589  -0.152   2.682  0.00  0.00    +0.000 C 
ATOM      9  C   UNL     1       7.775  -0.400   1.412  0.00  0.00    +0.000 C 
ATOM     10  C   UNL     1       7.812   0.806   0.510  0.00  0.00    +0.000 A 
ATOM     11  C   UNL     1       8.533   0.807  -0.689  0.00  0.00    +0.000 A 
ATOM     12  C   UNL     1       8.607   1.972  -1.454  0.00  0.00    +0.000 A 
ATOM     13  C   UNL     1       7.956   3.130  -1.037  0.00  0.00    +0.000 A 
ATOM     14  C   UNL     1       7.214   3.126   0.146  0.00  0.00    +0.000 A 
ATOM     15  C   UNL     1       7.144   1.966   0.926  0.00  0.00    +0.000 A 
ENDROOT
BRANCH   1  16
ATOM     16  C   UNL     1       4.987   1.980   2.128  0.00  0.00    +0.000 C 
BRANCH  16  17
ATOM     17  C   UNL     1       4.408   1.017   1.077  0.00  0.00    +0.000 C 
BRANCH  17  18
ATOM     18  C   UNL     1       2.886   1.016   1.089  0.00  0.00    +0.000 C 
BRANCH  18  20
ATOM     19  C   UNL     1       0.940   0.081   0.035  0.00  0.00    +0.000 C 
ATOM     20  N   UNL     1       2.394   0.096   0.062  0.00  0.00    +0.000 NA
ATOM     21  H   UNL     1       2.751   0.377  -0.853  0.00  0.00    +0.000 HD
ENDBRANCH  18  20
ENDBRANCH  17  18
ENDBRANCH  16  17
ENDBRANCH   1  16
TORSDOF 4
