REMARK  Name = Desloratadine
REMARK  0 active torsions:
REMARK  status: ('A' for Active; 'I' for Inactive)
REMARK                            x       y       z     vdW  Elec       q    Type
REMARK                         _______ _______ _______ _____ _____    ______ ____
ROOT
ATOM      1 CL   UNL     1       1.086  -0.033   0.096  0.00  0.00    +0.000 Cl
ATOM      2  C   UNL     1       2.806  -0.036   0.063  0.00  0.00    +0.000 A 
ATOM      3  C   UNL     1       3.488   1.142  -0.228  0.00  0.00    +0.000 A 
ATOM      4  C   UNL     1       4.889   1.148  -0.272  0.00  0.00    +0.000 A 
ATOM      5  C   UNL     1       5.607  -0.028   0.004  0.00  0.00    +0.000 A 
ATOM      6  C   UNL     1       4.907  -1.201   0.321  0.00  0.00    +0.000 A 
ATOM      7  C   UNL     1       3.508  -1.207   0.335  0.00  0.00    +0.000 A 
ATOM      8  C   UNL     1       7.097   0.021   0.016  0.00  0.00    +0.000 C 
ATOM      9  C   UNL     1       7.788  -0.663  -0.937  0.00  0.00    +0.000 C 
ATOM     10  C   UNL     1       9.307  -0.702  -1.081  0.00  0.00    +0.000 C 
ATOM     11  C   UNL     1       9.792  -2.152  -0.935  0.00  0.00    +0.000 C 
ATOM     12  N   UNL     1       9.211  -3.026  -1.968  0.00  0.00    +0.000 NA
ATOM     13  C   UNL     1       7.742  -2.986  -1.899  0.00  0.00    +0.000 C 
ATOM     14  C   UNL     1       7.189  -1.555  -2.025  0.00  0.00    +0.000 C 
ATOM     15  C   UNL     1       7.796   0.871   1.041  0.00  0.00    +0.000 A 
ATOM     16  C   UNL     1       7.403   2.182   1.358  0.00  0.00    +0.000 A 
ATOM     17  C   UNL     1       6.241   2.949   0.765  0.00  0.00    +0.000 C 
ATOM     18  C   UNL     1       5.630   2.432  -0.532  0.00  0.00    +0.000 C 
ATOM     19  C   UNL     1       8.123   2.856   2.361  0.00  0.00    +0.000 A 
ATOM     20  C   UNL     1       9.195   2.246   2.993  0.00  0.00    +0.000 A 
ATOM     21  C   UNL     1       9.504   0.956   2.624  0.00  0.00    +0.000 A 
ATOM     22  N   UNL     1       8.823   0.257   1.691  0.00  0.00    +0.000 NA
ATOM     23  H   UNL     1       9.531  -3.981  -1.813  0.00  0.00    +0.000 HD
ENDROOT
TORSDOF 0
