REMARK  Name = Desoximetasone
REMARK  7 active torsions:
REMARK  status: ('A' for Active; 'I' for Inactive)
REMARK    1  A    between atoms: C_4  and  C_5
REMARK    2  A    between atoms: C_6  and  C_7
REMARK    3  A    between atoms: C_7  and  C_9
REMARK    4  A    between atoms: C_9  and  O_10
REMARK    5  A    between atoms: C_11  and  C_12
REMARK    6  A    between atoms: C_14  and  O_15
REMARK    7  A    between atoms: C_28  and  C_29
REMARK                            x       y       z     vdW  Elec       q    Type
REMARK                         _______ _______ _______ _____ _____    ______ ____
ROOT
ATOM      1  C   UNL     1       1.670  -0.004   0.119  0.00  0.00    +0.000 C 
ATOM      2  C   UNL     1       2.149   0.087   1.490  0.00  0.00    +0.000 C 
ATOM      3  C   UNL     1       3.308  -0.381   0.682  0.00  0.00    +0.000 C 
ATOM      4  C   UNL     1       4.337  -1.048   1.998  0.00  0.00    +0.000 C 
ATOM      5  C   UNL     1       2.660  -0.809  -1.214  0.00  0.00    +0.000 C 
ATOM      6  C   UNL     1       2.546  -1.599  -0.166  0.00  0.00    +0.000 C 
ATOM      7  C   UNL     1       1.821  -2.806   0.231  0.00  0.00    +0.000 C 
ATOM      8  C   UNL     1       4.339  -1.680  -0.613  0.00  0.00    +0.000 C 
ATOM      9  C   UNL     1       4.866  -0.060  -1.311  0.00  0.00    +0.000 C 
ATOM     10  C   UNL     1       3.974   1.498  -1.000  0.00  0.00    +0.000 C 
ATOM     11  F   UNL     1       3.803   1.631   0.412  0.00  0.00    +0.000 F 
ATOM     12  C   UNL     1       2.316   1.431  -0.891  0.00  0.00    +0.000 C 
ATOM     13  C   UNL     1       1.845   2.691  -0.124  0.00  0.00    +0.000 C 
ATOM     14  C   UNL     1       2.559   3.902  -0.662  0.00  0.00    +0.000 C 
ATOM     15  C   UNL     1       3.975   3.800  -0.165  0.00  0.00    +0.000 C 
ATOM     16  C   UNL     1       4.650   4.709   0.569  0.00  0.00    +0.000 C 
ATOM     17  C   UNL     1       4.603   5.795  -0.348  0.00  0.00    +0.000 C 
ATOM     18  O   UNL     1       4.024   6.813  -0.039  0.00  0.00    +0.000 OA
ATOM     19  C   UNL     1       5.523   5.344  -1.503  0.00  0.00    +0.000 C 
ATOM     20  C   UNL     1       5.670   3.959  -1.759  0.00  0.00    +0.000 C 
ATOM     21  C   UNL     1       4.929   2.815  -0.804  0.00  0.00    +0.000 C 
ATOM     22  C   UNL     1       5.750   2.380   0.643  0.00  0.00    +0.000 C 
ENDROOT
BRANCH   5  23
ATOM     23  C   UNL     1       1.294  -0.746  -2.425  0.00  0.00    +0.000 C 
ATOM     24  O   UNL     1       1.487  -0.007  -3.419  0.00  0.00    +0.000 OA
BRANCH  23  25
ATOM     25  C   UNL     1       0.035  -1.750  -2.615  0.00  0.00    +0.000 C 
BRANCH  25  26
ATOM     26  O   UNL     1      -0.810  -1.550  -3.790  0.00  0.00    +0.000 OA
ATOM     27  H   UNL     1      -1.133  -0.632  -3.846  0.00  0.00    +0.000 HD
ENDBRANCH  25  26
ENDBRANCH  23  25
ENDBRANCH   5  23
BRANCH   9  28
ATOM     28  O   UNL     1       6.239   0.027  -0.956  0.00  0.00    +0.000 OA
ATOM     29  H   UNL     1       6.262  -0.192  -0.006  0.00  0.00    +0.000 HD
ENDBRANCH   9  28
TORSDOF 4
