REMARK  Name = Desonide
REMARK  8 active torsions:
REMARK  status: ('A' for Active; 'I' for Inactive)
REMARK    1  A    between atoms: C_6  and  C_7
REMARK    2  A    between atoms: C_6  and  C_8
REMARK    3  A    between atoms: C_10  and  C_11
REMARK    4  A    between atoms: C_11  and  C_13
REMARK    5  A    between atoms: C_13  and  O_14
REMARK    6  A    between atoms: C_15  and  C_16
REMARK    7  A    between atoms: C_18  and  O_19
REMARK    8  A    between atoms: C_32  and  C_33
REMARK                            x       y       z     vdW  Elec       q    Type
REMARK                         _______ _______ _______ _____ _____    ______ ____
ROOT
ATOM      1  C   UNL     1       2.055  -0.309  -0.392  0.00  0.00    +0.000 C 
ATOM      2  C   UNL     1       2.548  -0.262  -1.810  0.00  0.00    +0.000 C 
ATOM      3  C   UNL     1       4.098  -0.236  -1.820  0.00  0.00    +0.000 C 
ATOM      4  O   UNL     1       5.040  -1.481  -1.388  0.00  0.00    +0.000 OA
ATOM      5  C   UNL     1       6.086  -1.013  -0.283  0.00  0.00    +0.000 C 
ATOM      6  C   UNL     1       6.463  -1.588   1.468  0.00  0.00    +0.000 C 
ATOM      7  C   UNL     1       7.396  -1.580  -0.648  0.00  0.00    +0.000 C 
ATOM      8  O   UNL     1       5.834   0.320  -0.523  0.00  0.00    +0.000 OA
ATOM      9  C   UNL     1       4.169   0.460  -0.550  0.00  0.00    +0.000 C 
ATOM     10  C   UNL     1       3.069  -0.982   0.347  0.00  0.00    +0.000 C 
ATOM     11  C   UNL     1       2.106  -1.276   1.905  0.00  0.00    +0.000 C 
ATOM     12  C   UNL     1       4.129  -1.329   1.220  0.00  0.00    +0.000 C 
ATOM     13  C   UNL     1       4.710  -0.088   1.971  0.00  0.00    +0.000 C 
ATOM     14  C   UNL     1       4.486   1.072   1.230  0.00  0.00    +0.000 C 
ATOM     15  C   UNL     1       2.477   0.843   0.326  0.00  0.00    +0.000 C 
ATOM     16  C   UNL     1       1.740   2.613  -0.587  0.00  0.00    +0.000 C 
ATOM     17  C   UNL     1       2.380   4.340   0.366  0.00  0.00    +0.000 C 
ATOM     18  C   UNL     1       4.153   4.312   0.997  0.00  0.00    +0.000 C 
ATOM     19  C   UNL     1       5.019   5.265   0.639  0.00  0.00    +0.000 C 
ATOM     20  C   UNL     1       6.427   5.038   1.120  0.00  0.00    +0.000 C 
ATOM     21  O   UNL     1       7.056   5.453   2.083  0.00  0.00    +0.000 OA
ATOM     22  C   UNL     1       7.170   4.081   0.318  0.00  0.00    +0.000 C 
ATOM     23  C   UNL     1       6.571   3.087   1.059  0.00  0.00    +0.000 C 
ATOM     24  C   UNL     1       5.018   2.902   1.779  0.00  0.00    +0.000 C 
ATOM     25  C   UNL     1       4.568   2.949   3.325  0.00  0.00    +0.000 C 
ENDROOT
BRANCH   9  26
ATOM     26  C   UNL     1       3.492   2.270   0.314  0.00  0.00    +0.000 C 
ATOM     27  O   UNL     1       3.212   2.073   1.876  0.00  0.00    +0.000 OA
BRANCH  26  28
ATOM     28  C   UNL     1       1.828   2.419   1.326  0.00  0.00    +0.000 C 
BRANCH  28  29
ATOM     29  O   UNL     1       1.278   2.580   2.550  0.00  0.00    +0.000 OA
ATOM     30  H   UNL     1       1.412   1.655   2.833  0.00  0.00    +0.000 HD
ENDBRANCH  28  29
ENDBRANCH  26  28
ENDBRANCH   9  26
BRANCH  13  31
ATOM     31  O   UNL     1       4.246  -0.082   3.273  0.00  0.00    +0.000 OA
ATOM     32  H   UNL     1       3.463   0.487   3.213  0.00  0.00    +0.000 HD
ENDBRANCH  13  31
TORSDOF 4
