REMARK  Name = Desoxycorticosterone acetate
REMARK  7 active torsions:
REMARK  status: ('A' for Active; 'I' for Inactive)
REMARK    1  A    between atoms: C_5  and  C_6
REMARK    2  A    between atoms: C_6  and  C_8
REMARK    3  A    between atoms: C_8  and  O_9
REMARK    4  A    between atoms: O_9  and  C_10
REMARK    5  A    between atoms: C_10  and  C_11
REMARK    6  A    between atoms: C_13  and  C_14
REMARK    7  A    between atoms: C_29  and  C_30
REMARK                            x       y       z     vdW  Elec       q    Type
REMARK                         _______ _______ _______ _____ _____    ______ ____
ROOT
ATOM      1  C   UNL     1       1.947   0.065   0.017  0.00  0.00    +0.000 C 
ATOM      2  C   UNL     1       2.444   1.463   0.347  0.00  0.00    +0.000 C 
ATOM      3  C   UNL     1       2.530   1.473   1.879  0.00  0.00    +0.000 C 
ATOM      4  C   UNL     1       2.349   0.006   2.366  0.00  0.00    +0.000 C 
ATOM      5  C   UNL     1       2.609  -0.830   1.087  0.00  0.00    +0.000 C 
ATOM      6  C   UNL     1       4.135  -1.012   0.887  0.00  0.00    +0.000 C 
ATOM      7  C   UNL     1       1.887  -2.185   1.017  0.00  0.00    +0.000 C 
ATOM      8  C   UNL     1       1.986  -2.820  -0.381  0.00  0.00    +0.000 C 
ATOM      9  C   UNL     1       1.557  -1.887  -1.539  0.00  0.00    +0.000 C 
ATOM     10  C   UNL     1       2.161  -0.456  -1.407  0.00  0.00    +0.000 C 
ATOM     11  C   UNL     1       1.516   0.474  -2.440  0.00  0.00    +0.000 C 
ATOM     12  C   UNL     1       1.632  -0.055  -3.864  0.00  0.00    +0.000 C 
ATOM     13  C   UNL     1       1.227  -1.502  -4.003  0.00  0.00    +0.000 C 
ATOM     14  C   UNL     1       0.417  -1.864  -5.014  0.00  0.00    +0.000 C 
ATOM     15  C   UNL     1       0.166  -3.289  -5.327  0.00  0.00    +0.000 C 
ATOM     16  O   UNL     1      -0.573  -3.584  -6.262  0.00  0.00    +0.000 OA
ATOM     17  C   UNL     1       0.939  -4.320  -4.548  0.00  0.00    +0.000 C 
ATOM     18  C   UNL     1       1.096  -3.863  -3.103  0.00  0.00    +0.000 C 
ATOM     19  C   UNL     1       1.807  -2.484  -2.977  0.00  0.00    +0.000 C 
ATOM     20  C   UNL     1       3.314  -2.676  -3.262  0.00  0.00    +0.000 C 
ENDROOT
BRANCH   4  21
ATOM     21  C   UNL     1       3.264  -0.316   3.559  0.00  0.00    +0.000 C 
ATOM     22  O   UNL     1       4.046   0.522   4.011  0.00  0.00    +0.000 OA
BRANCH  21  23
ATOM     23  C   UNL     1       3.150  -1.711   4.176  0.00  0.00    +0.000 C 
BRANCH  23  24
ATOM     24  O   UNL     1       4.079  -1.862   5.256  0.00  0.00    +0.000 OA
BRANCH  24  25
ATOM     25  C   UNL     1       4.235  -3.017   5.936  0.00  0.00    +0.000 C 
ATOM     26  C   UNL     1       3.357  -4.187   5.597  0.00  0.00    +0.000 C 
ATOM     27  O   UNL     1       5.074  -3.109   6.831  0.00  0.00    +0.000 OA
ENDBRANCH  24  25
ENDBRANCH  23  24
ENDBRANCH  21  23
ENDBRANCH   4  21
TORSDOF 4
