REMARK  Name = Desogestrel
REMARK  4 active torsions:
REMARK  status: ('A' for Active; 'I' for Inactive)
REMARK    1  A    between atoms: C_5  and  O_6
REMARK    2  A    between atoms: C_5  and  C_7
REMARK    3  A    between atoms: C_9  and  C_10
REMARK    4  A    between atoms: C_10  and  C_11
REMARK                            x       y       z     vdW  Elec       q    Type
REMARK                         _______ _______ _______ _____ _____    ______ ____
ROOT
ATOM      1  C   UNL     1       1.773   0.089  -0.323  0.00  0.00    +0.000 C 
ATOM      2  C   UNL     1       2.224   0.220  -1.656  0.00  0.00    +0.000 C 
ATOM      3  C   UNL     1       3.213  -0.292  -0.674  0.00  0.00    +0.000 C 
ATOM      4  C   UNL     1       2.449  -0.835   1.191  0.00  0.00    +0.000 C 
ATOM      5  C   UNL     1       2.672  -1.560   0.062  0.00  0.00    +0.000 C 
ATOM      6  C   UNL     1       4.462  -1.557   0.599  0.00  0.00    +0.000 C 
ATOM      7  C   UNL     1       4.665  -0.215   1.484  0.00  0.00    +0.000 C 
ATOM      8  C   UNL     1       5.103  -0.354   2.750  0.00  0.00    +0.000 C 
ATOM      9  C   UNL     1       4.035   1.207   0.988  0.00  0.00    +0.000 C 
ATOM     10  C   UNL     1       4.499   2.349   1.789  0.00  0.00    +0.000 C 
ATOM     11  C   UNL     1       5.878   2.099   1.932  0.00  0.00    +0.000 C 
ATOM     12  C   UNL     1       7.115   1.466   2.137  0.00  0.00    +0.000 C 
ATOM     13  C   UNL     1       7.617   2.790   1.309  0.00  0.00    +0.000 C 
ATOM     14  C   UNL     1       6.172   3.916   0.684  0.00  0.00    +0.000 C 
ATOM     15  C   UNL     1       4.734   3.590   0.887  0.00  0.00    +0.000 C 
ATOM     16  C   UNL     1       3.142   3.931   0.587  0.00  0.00    +0.000 C 
ATOM     17  C   UNL     1       2.268   2.758  -0.016  0.00  0.00    +0.000 C 
ATOM     18  C   UNL     1       2.490   1.419   0.677  0.00  0.00    +0.000 C 
ENDROOT
BRANCH   4  19
ATOM     19  O   UNL     1       2.729  -1.966   2.110  0.00  0.00    +0.000 OA
ATOM     20  H   UNL     1       3.549  -1.959   2.620  0.00  0.00    +0.000 HD
ENDBRANCH   4  19
BRANCH   4  21
ATOM     21  C   UNL     1       0.894  -0.866   1.586  0.00  0.00    +0.000 C 
ATOM     22  C   UNL     1      -0.240  -1.027   1.881  0.00  0.00    +0.000 C 
ENDBRANCH   4  21
BRANCH   5  23
ATOM     23  C   UNL     1       2.052  -2.834  -0.318  0.00  0.00    +0.000 C 
ATOM     24  C   UNL     1       2.559  -2.997  -1.722  0.00  0.00    +0.000 C 
ENDBRANCH   5  23
TORSDOF 3
