REMARK  Name = Desvenlafaxine
REMARK  8 active torsions:
REMARK  status: ('A' for Active; 'I' for Inactive)
REMARK    1  A    between atoms: C_1  and  N_2
REMARK    2  A    between atoms: N_2  and  C_3
REMARK    3  A    between atoms: N_2  and  C_4
REMARK    4  A    between atoms: C_4  and  C_5
REMARK    5  A    between atoms: C_5  and  C_6
REMARK    6  A    between atoms: C_5  and  C_13
REMARK    7  A    between atoms: C_9  and  O_10
REMARK    8  A    between atoms: C_13  and  O_14
REMARK                            x       y       z     vdW  Elec       q    Type
REMARK                         _______ _______ _______ _____ _____    ______ ____
ROOT
ATOM      1  C   UNL     1       4.626   0.469   1.140  0.00  0.00    +0.000 C 
ENDROOT
BRANCH   1   2
ATOM      2  C   UNL     1       5.207   1.429   0.101  0.00  0.00    +0.000 A 
ATOM      3  C   UNL     1       5.906   0.938  -1.017  0.00  0.00    +0.000 A 
ATOM      4  C   UNL     1       6.117   1.780  -2.119  0.00  0.00    +0.000 A 
ATOM      5  C   UNL     1       5.759   3.124  -2.065  0.00  0.00    +0.000 A 
ATOM      6  C   UNL     1       5.179   3.650  -0.927  0.00  0.00    +0.000 A 
ATOM      7  C   UNL     1       4.868   2.786   0.095  0.00  0.00    +0.000 A 
BRANCH   5   8
ATOM      8  O   UNL     1       5.869   3.980  -3.111  0.00  0.00    +0.000 OA
ATOM      9  H   UNL     1       6.221   3.488  -3.871  0.00  0.00    +0.000 HD
ENDBRANCH   5   8
ENDBRANCH   1   2
BRANCH   1  10
ATOM     10  C   UNL     1       4.990   0.906   2.634  0.00  0.00    +0.000 C 
ATOM     11  C   UNL     1       4.796   2.384   3.048  0.00  0.00    +0.000 C 
ATOM     12  C   UNL     1       3.333   2.821   3.060  0.00  0.00    +0.000 C 
ATOM     13  C   UNL     1       2.520   1.969   4.021  0.00  0.00    +0.000 C 
ATOM     14  C   UNL     1       2.772   0.464   3.922  0.00  0.00    +0.000 C 
ATOM     15  C   UNL     1       4.249   0.079   3.712  0.00  0.00    +0.000 C 
BRANCH  10  16
ATOM     16  O   UNL     1       6.403   0.641   2.794  0.00  0.00    +0.000 OA
ATOM     17  H   UNL     1       6.870   1.161   2.113  0.00  0.00    +0.000 HD
ENDBRANCH  10  16
ENDBRANCH   1  10
BRANCH   1  18
ATOM     18  C   UNL     1       3.098   0.197   0.930  0.00  0.00    +0.000 C 
BRANCH  18  20
ATOM     19  C   UNL     1       0.975  -0.149  -0.109  0.00  0.00    +0.000 C 
ATOM     20  N   UNL     1       2.433  -0.172  -0.334  0.00  0.00    +0.000 NA
ATOM     21  C   UNL     1       2.708   0.764  -1.412  0.00  0.00    +0.000 C 
ENDBRANCH  18  20
ENDBRANCH   1  18
TORSDOF 6
