REMARK  Name = Deucravacitinib
REMARK  10 active torsions:
REMARK  status: ('A' for Active; 'I' for Inactive)
REMARK    1  A    between atoms: C_2  and  N_5
REMARK    2  A    between atoms: C_6  and  C_8
REMARK    3  A    between atoms: C_9  and  N_10
REMARK    4  A    between atoms: N_10  and  C_11
REMARK    5  A    between atoms: C_15  and  C_16
REMARK    6  A    between atoms: N_18  and  C_19
REMARK    7  A    between atoms: C_22  and  O_23
REMARK    8  A    between atoms: O_23  and  C_24
REMARK    9  A    between atoms: C_26  and  N_27
REMARK   10  A    between atoms: C_28  and  C_30
REMARK                            x       y       z     vdW  Elec       q    Type
REMARK                         _______ _______ _______ _____ _____    ______ ____
ROOT
ATOM      1  C   UNL     1       4.563  -3.019   0.151  0.00  0.00    +0.000 A 
ATOM      2  C   UNL     1       3.964  -3.979  -0.695  0.00  0.00    +0.000 A 
ATOM      3  C   UNL     1       4.392  -5.287  -0.603  0.00  0.00    +0.000 A 
ATOM      4  C   UNL     1       5.450  -5.546   0.293  0.00  0.00    +0.000 A 
ATOM      5  N   UNL     1       6.009  -4.587   1.045  0.00  0.00    +0.000 NA
ATOM      6  N   UNL     1       5.555  -3.323   0.987  0.00  0.00    +0.000 NA
ENDROOT
BRANCH   1   8
ATOM      7  N   UNL     1       2.611  -1.318   0.098  0.00  0.00    +0.000 N 
ATOM      8  C   UNL     1       4.056  -1.587   0.106  0.00  0.00    +0.000 C 
ATOM      9  O   UNL     1       4.882  -0.621   0.076  0.00  0.00    +0.000 OA
ATOM     10  H   UNL     1       1.971  -2.066   0.121  0.00  0.00    +0.000 HD
BRANCH   7  12
ATOM     11  H   UNL     1       1.051   0.067   0.054  0.00  0.00    +0.000 HD
ATOM     12  C   UNL     1       2.121   0.067   0.054  0.00  0.00    +0.000 C 
ATOM     13  H   UNL     1       2.478   0.544  -0.835  0.00  0.00    +0.000 HD
ATOM     14  H   UNL     1       2.478   0.599   0.911  0.00  0.00    +0.000 HD
ENDBRANCH   7  12
ENDBRANCH   1   8
BRANCH   4  15
ATOM     15  N   UNL     1       5.959  -6.921   0.408  0.00  0.00    +0.000 N 
ATOM     16  C   UNL     1       5.366  -7.994  -0.404  0.00  0.00    +0.000 C 
ATOM     17  O   UNL     1       4.414  -7.733  -1.204  0.00  0.00    +0.000 OA
ATOM     18  H   UNL     1       6.697  -7.122   1.027  0.00  0.00    +0.000 HD
BRANCH  16  19
ATOM     19  C   UNL     1       5.893  -9.415  -0.286  0.00  0.00    +0.000 C 
ATOM     20  C   UNL     1       5.778 -10.934  -0.428  0.00  0.00    +0.000 C 
ATOM     21  C   UNL     1       6.417 -10.107  -1.546  0.00  0.00    +0.000 C 
ENDBRANCH  16  19
ENDBRANCH   4  15
BRANCH   2  22
ATOM     22  N   UNL     1       2.912  -3.594  -1.647  0.00  0.00    +0.000 N 
ATOM     23  H   UNL     1       2.616  -2.656  -1.701  0.00  0.00    +0.000 HD
BRANCH  22  24
ATOM     24  C   UNL     1       2.302  -4.608  -2.518  0.00  0.00    +0.000 A 
ATOM     25  C   UNL     1       2.443  -4.623  -3.896  0.00  0.00    +0.000 A 
ATOM     26  C   UNL     1       1.651  -5.602  -4.543  0.00  0.00    +0.000 A 
ATOM     27  C   UNL     1       1.108  -6.644  -3.940  0.00  0.00    +0.000 A 
ATOM     28  C   UNL     1       1.060  -6.599  -2.574  0.00  0.00    +0.000 A 
ATOM     29  C   UNL     1       1.698  -5.602  -1.877  0.00  0.00    +0.000 A 
BRANCH  28  30
ATOM     30  C   UNL     1       0.290  -7.668  -1.816  0.00  0.00    +0.000 A 
ATOM     31  N   UNL     1       0.724  -8.919  -1.866  0.00  0.00    +0.000 NA
ATOM     32  N   UNL     1      -0.130  -9.553  -1.006  0.00  0.00    +0.000 N 
ATOM     33  C   UNL     1      -0.016 -11.010  -0.852  0.00  0.00    +0.000 C 
ATOM     34  C   UNL     1      -1.021  -8.677  -0.490  0.00  0.00    +0.000 A 
ATOM     35  N   UNL     1      -0.774  -7.462  -0.980  0.00  0.00    +0.000 NA
ENDBRANCH  28  30
BRANCH  29  36
ATOM     36  O   UNL     1       1.712  -5.634  -0.457  0.00  0.00    +0.000 OA
ATOM     37  C   UNL     1       2.370  -4.607   0.270  0.00  0.00    +0.000 C 
ENDBRANCH  29  36
ENDBRANCH  22  24
ENDBRANCH   2  22
TORSDOF 8
