REMARK  Name = Deutetrabenazine
REMARK  8 active torsions:
REMARK  status: ('A' for Active; 'I' for Inactive)
REMARK    1  A    between atoms: C_2  and  O_5
REMARK    2  A    between atoms: O_5  and  C_6
REMARK    3  A    between atoms: C_11  and  O_12
REMARK    4  A    between atoms: O_12  and  C_13
REMARK    5  A    between atoms: C_21  and  C_22
REMARK    6  A    between atoms: C_22  and  C_23
REMARK    7  A    between atoms: C_23  and  C_24
REMARK    8  A    between atoms: C_23  and  C_25
REMARK                            x       y       z     vdW  Elec       q    Type
REMARK                         _______ _______ _______ _____ _____    ______ ____
ROOT
ATOM      1  C   UNL     1       3.922   1.155   1.062  0.00  0.00    +0.000 A 
ATOM      2  C   UNL     1       4.755   1.143  -0.041  0.00  0.00    +0.000 A 
ATOM      3  C   UNL     1       6.121   1.352   0.101  0.00  0.00    +0.000 A 
ATOM      4  C   UNL     1       6.650   1.554   1.359  0.00  0.00    +0.000 A 
ATOM      5  C   UNL     1       5.820   1.563   2.469  0.00  0.00    +0.000 A 
ATOM      6  C   UNL     1       4.458   1.366   2.329  0.00  0.00    +0.000 A 
ATOM      7  C   UNL     1       8.126   1.760   1.568  0.00  0.00    +0.000 C 
ATOM      8  C   UNL     1       8.403   2.730   2.694  0.00  0.00    +0.000 C 
ATOM      9  C   UNL     1       8.797   4.088   2.160  0.00  0.00    +0.000 C 
ATOM     10  O   UNL     1       8.272   5.165   2.582  0.00  0.00    +0.000 OA
ATOM     11  C   UNL     1       9.840   4.072   1.109  0.00  0.00    +0.000 C 
ATOM     12  C   UNL     1       9.646   3.032   0.072  0.00  0.00    +0.000 C 
ATOM     13  N   UNL     1       8.785   2.027   0.306  0.00  0.00    +0.000 NA
ATOM     14  C   UNL     1       8.440   1.130  -0.820  0.00  0.00    +0.000 C 
ATOM     15  C   UNL     1       6.964   1.350  -1.147  0.00  0.00    +0.000 C 
ENDROOT
BRANCH   1  16
ATOM     16  O   UNL     1       2.526   0.954   0.898  0.00  0.00    +0.000 OA
BRANCH  16  18
ATOM     17  H   UNL     1       0.983  -0.084   0.052  0.00  0.00    +0.000 HD
ATOM     18  C   UNL     1       2.053  -0.084   0.052  0.00  0.00    +0.000 C 
ATOM     19  H   UNL     1       2.409  -1.027   0.410  0.00  0.00    +0.000 HD
ATOM     20  H   UNL     1       2.409   0.078  -0.944  0.00  0.00    +0.000 HD
ENDBRANCH  16  18
ENDBRANCH   1  16
BRANCH   6  21
ATOM     21  O   UNL     1       3.612   1.381   3.470  0.00  0.00    +0.000 OA
BRANCH  21  22
ATOM     22  C   UNL     1       2.214   1.179   3.320  0.00  0.00    +0.000 C 
ATOM     23  H   UNL     1       1.809   1.941   2.688  0.00  0.00    +0.000 HD
ATOM     24  H   UNL     1       2.038   0.220   2.880  0.00  0.00    +0.000 HD
ATOM     25  H   UNL     1       1.743   1.223   4.280  0.00  0.00    +0.000 HD
ENDBRANCH  21  22
ENDBRANCH   6  21
BRANCH  11  26
ATOM     26  C   UNL     1      11.185   3.834   1.776  0.00  0.00    +0.000 C 
BRANCH  26  27
ATOM     27  C   UNL     1      11.412   4.889   2.847  0.00  0.00    +0.000 C 
ATOM     28  C   UNL     1      10.308   4.801   3.887  0.00  0.00    +0.000 C 
ATOM     29  C   UNL     1      12.757   4.651   3.514  0.00  0.00    +0.000 C 
ENDBRANCH  26  27
ENDBRANCH  11  26
TORSDOF 6
