REMARK  Name = Dexamethasone
REMARK  8 active torsions:
REMARK  status: ('A' for Active; 'I' for Inactive)
REMARK    1  A    between atoms: C_4  and  C_5
REMARK    2  A    between atoms: C_6  and  O_7
REMARK    3  A    between atoms: C_6  and  C_8
REMARK    4  A    between atoms: C_8  and  C_10
REMARK    5  A    between atoms: C_10  and  O_11
REMARK    6  A    between atoms: C_12  and  C_13
REMARK    7  A    between atoms: C_15  and  O_16
REMARK    8  A    between atoms: C_29  and  C_30
REMARK                            x       y       z     vdW  Elec       q    Type
REMARK                         _______ _______ _______ _____ _____    ______ ____
ROOT
ATOM      1  C   UNL     1       1.747   0.049  -0.048  0.00  0.00    +0.000 C 
ATOM      2  C   UNL     1       2.280   0.166  -1.374  0.00  0.00    +0.000 C 
ATOM      3  C   UNL     1       3.419  -0.368  -0.500  0.00  0.00    +0.000 C 
ATOM      4  C   UNL     1       5.121  -0.019  -1.168  0.00  0.00    +0.000 C 
ATOM      5  C   UNL     1       2.744  -0.972   1.382  0.00  0.00    +0.000 C 
ATOM      6  C   UNL     1       2.611  -1.601   0.220  0.00  0.00    +0.000 C 
ATOM      7  C   UNL     1       1.828  -2.767  -0.237  0.00  0.00    +0.000 C 
ATOM      8  C   UNL     1       4.429  -1.624   0.723  0.00  0.00    +0.000 C 
ATOM      9  C   UNL     1       4.836  -0.010   1.567  0.00  0.00    +0.000 C 
ATOM     10  C   UNL     1       3.987   1.501   1.132  0.00  0.00    +0.000 C 
ATOM     11  F   UNL     1       3.957   1.499  -0.263  0.00  0.00    +0.000 F 
ATOM     12  C   UNL     1       2.349   1.408   1.028  0.00  0.00    +0.000 C 
ATOM     13  C   UNL     1       1.861   2.662   0.273  0.00  0.00    +0.000 C 
ATOM     14  C   UNL     1       2.503   3.905   0.798  0.00  0.00    +0.000 C 
ATOM     15  C   UNL     1       3.920   3.902   0.317  0.00  0.00    +0.000 C 
ATOM     16  C   UNL     1       4.543   4.954  -0.270  0.00  0.00    +0.000 C 
ATOM     17  C   UNL     1       4.433   5.834   0.872  0.00  0.00    +0.000 C 
ATOM     18  O   UNL     1       3.572   6.680   0.986  0.00  0.00    +0.000 OA
ATOM     19  C   UNL     1       5.471   5.325   1.845  0.00  0.00    +0.000 C 
ATOM     20  C   UNL     1       5.603   3.942   2.012  0.00  0.00    +0.000 C 
ATOM     21  C   UNL     1       4.862   2.932   0.995  0.00  0.00    +0.000 C 
ATOM     22  C   UNL     1       5.780   2.628  -0.309  0.00  0.00    +0.000 C 
ENDROOT
BRANCH   5  23
ATOM     23  O   UNL     1       1.264  -0.887   1.821  0.00  0.00    +0.000 OA
ATOM     24  H   UNL     1       1.071  -1.041   2.755  0.00  0.00    +0.000 HD
ENDBRANCH   5  23
BRANCH   5  25
ATOM     25  C   UNL     1       2.889  -2.482   2.467  0.00  0.00    +0.000 C 
ATOM     26  O   UNL     1       3.293  -3.582   2.048  0.00  0.00    +0.000 OA
BRANCH  25  27
ATOM     27  C   UNL     1       2.416  -2.588   4.001  0.00  0.00    +0.000 C 
BRANCH  27  28
ATOM     28  O   UNL     1       2.859  -3.841   4.597  0.00  0.00    +0.000 OA
ATOM     29  H   UNL     1       2.599  -4.571   3.998  0.00  0.00    +0.000 HD
ENDBRANCH  27  28
ENDBRANCH  25  27
ENDBRANCH   5  25
BRANCH   9  30
ATOM     30  O   UNL     1       4.689  -0.255   2.980  0.00  0.00    +0.000 OA
ATOM     31  H   UNL     1       3.765  -0.138   3.247  0.00  0.00    +0.000 HD
ENDBRANCH   9  30
TORSDOF 5
