REMARK  Name = Dexamethasone acetate
REMARK  10 active torsions:
REMARK  status: ('A' for Active; 'I' for Inactive)
REMARK    1  A    between atoms: C_4  and  C_5
REMARK    2  A    between atoms: C_6  and  O_7
REMARK    3  A    between atoms: C_6  and  C_8
REMARK    4  A    between atoms: C_8  and  C_10
REMARK    5  A    between atoms: C_10  and  O_11
REMARK    6  A    between atoms: O_11  and  C_12
REMARK    7  A    between atoms: C_12  and  C_13
REMARK    8  A    between atoms: C_15  and  C_16
REMARK    9  A    between atoms: C_18  and  O_19
REMARK   10  A    between atoms: C_32  and  C_33
REMARK                            x       y       z     vdW  Elec       q    Type
REMARK                         _______ _______ _______ _____ _____    ______ ____
ROOT
ATOM      1  C   UNL     1       1.683  -0.016  -0.077  0.00  0.00    +0.000 C 
ATOM      2  C   UNL     1       2.216   0.101  -1.403  0.00  0.00    +0.000 C 
ATOM      3  C   UNL     1       3.353  -0.432  -0.524  0.00  0.00    +0.000 C 
ATOM      4  C   UNL     1       5.057  -0.083  -1.197  0.00  0.00    +0.000 C 
ATOM      5  C   UNL     1       2.678  -1.037   1.360  0.00  0.00    +0.000 C 
ATOM      6  C   UNL     1       2.546  -1.666   0.195  0.00  0.00    +0.000 C 
ATOM      7  C   UNL     1       1.766  -2.831  -0.264  0.00  0.00    +0.000 C 
ATOM      8  C   UNL     1       4.365  -1.689   0.693  0.00  0.00    +0.000 C 
ATOM      9  C   UNL     1       4.773  -0.075   1.536  0.00  0.00    +0.000 C 
ATOM     10  C   UNL     1       3.924   1.437   1.101  0.00  0.00    +0.000 C 
ATOM     11  F   UNL     1       3.892   1.435  -0.294  0.00  0.00    +0.000 F 
ATOM     12  C   UNL     1       2.285   1.344   0.997  0.00  0.00    +0.000 C 
ATOM     13  C   UNL     1       1.798   2.598   0.241  0.00  0.00    +0.000 C 
ATOM     14  C   UNL     1       2.440   3.841   0.766  0.00  0.00    +0.000 C 
ATOM     15  C   UNL     1       3.857   3.838   0.286  0.00  0.00    +0.000 C 
ATOM     16  C   UNL     1       4.480   4.890  -0.302  0.00  0.00    +0.000 C 
ATOM     17  C   UNL     1       4.369   5.770   0.839  0.00  0.00    +0.000 C 
ATOM     18  O   UNL     1       3.506   6.614   0.954  0.00  0.00    +0.000 OA
ATOM     19  C   UNL     1       5.408   5.262   1.813  0.00  0.00    +0.000 C 
ATOM     20  C   UNL     1       5.539   3.879   1.981  0.00  0.00    +0.000 C 
ATOM     21  C   UNL     1       4.799   2.868   0.963  0.00  0.00    +0.000 C 
ATOM     22  C   UNL     1       5.715   2.564  -0.342  0.00  0.00    +0.000 C 
ENDROOT
BRANCH   5  23
ATOM     23  O   UNL     1       1.202  -0.944   1.796  0.00  0.00    +0.000 OA
ATOM     24  H   UNL     1       1.001  -1.117   2.724  0.00  0.00    +0.000 HD
ENDBRANCH   5  23
BRANCH   5  25
ATOM     25  C   UNL     1       2.830  -2.548   2.464  0.00  0.00    +0.000 C 
ATOM     26  O   UNL     1       3.250  -3.635   2.031  0.00  0.00    +0.000 OA
BRANCH  25  27
ATOM     27  C   UNL     1       2.355  -2.659   4.038  0.00  0.00    +0.000 C 
BRANCH  27  28
ATOM     28  O   UNL     1       2.843  -3.977   4.595  0.00  0.00    +0.000 OA
BRANCH  28  29
ATOM     29  C   UNL     1       2.724  -4.528   5.835  0.00  0.00    +0.000 C 
ATOM     30  C   UNL     1       1.978  -3.779   6.897  0.00  0.00    +0.000 C 
ATOM     31  O   UNL     1       3.222  -5.621   6.109  0.00  0.00    +0.000 OA
ENDBRANCH  28  29
ENDBRANCH  27  28
ENDBRANCH  25  27
ENDBRANCH   5  25
BRANCH   9  32
ATOM     32  O   UNL     1       4.619  -0.322   2.951  0.00  0.00    +0.000 OA
ATOM     33  H   UNL     1       3.696  -0.190   3.208  0.00  0.00    +0.000 HD
ENDBRANCH   9  32
TORSDOF 6
