REMARK  Name = Dexamethasone metasulfobenzoate
REMARK  12 active torsions:
REMARK  status: ('A' for Active; 'I' for Inactive)
REMARK    1  A    between atoms: C_4  and  C_5
REMARK    2  A    between atoms: C_6  and  O_7
REMARK    3  A    between atoms: C_6  and  C_8
REMARK    4  A    between atoms: C_8  and  C_10
REMARK    5  A    between atoms: C_10  and  O_11
REMARK    6  A    between atoms: O_11  and  C_12
REMARK    7  A    between atoms: C_12  and  C_14
REMARK    8  A    between atoms: C_18  and  S_20
REMARK    9  A    between atoms: S_20  and  O_21
REMARK   10  A    between atoms: C_24  and  C_25
REMARK   11  A    between atoms: C_27  and  O_28
REMARK   12  A    between atoms: C_41  and  C_42
REMARK                            x       y       z     vdW  Elec       q    Type
REMARK                         _______ _______ _______ _____ _____    ______ ____
ROOT
ATOM      1  C   UNL     1       1.823  -0.087  -0.167  0.00  0.00    +0.000 C 
ATOM      2  C   UNL     1       2.356   0.029  -1.493  0.00  0.00    +0.000 C 
ATOM      3  C   UNL     1       3.493  -0.504  -0.612  0.00  0.00    +0.000 C 
ATOM      4  C   UNL     1       5.198  -0.154  -1.288  0.00  0.00    +0.000 C 
ATOM      5  C   UNL     1       2.820  -1.115   1.273  0.00  0.00    +0.000 C 
ATOM      6  C   UNL     1       2.687  -1.737   0.105  0.00  0.00    +0.000 C 
ATOM      7  C   UNL     1       1.906  -2.902  -0.357  0.00  0.00    +0.000 C 
ATOM      8  C   UNL     1       4.506  -1.760   0.601  0.00  0.00    +0.000 C 
ATOM      9  C   UNL     1       4.913  -0.146   1.444  0.00  0.00    +0.000 C 
ATOM     10  C   UNL     1       4.064   1.366   1.009  0.00  0.00    +0.000 C 
ATOM     11  F   UNL     1       4.032   1.364  -0.387  0.00  0.00    +0.000 F 
ATOM     12  C   UNL     1       2.426   1.273   0.905  0.00  0.00    +0.000 C 
ATOM     13  C   UNL     1       1.939   2.526   0.148  0.00  0.00    +0.000 C 
ATOM     14  C   UNL     1       2.581   3.770   0.673  0.00  0.00    +0.000 C 
ATOM     15  C   UNL     1       3.998   3.767   0.193  0.00  0.00    +0.000 C 
ATOM     16  C   UNL     1       4.622   4.819  -0.395  0.00  0.00    +0.000 C 
ATOM     17  C   UNL     1       4.509   5.699   0.746  0.00  0.00    +0.000 C 
ATOM     18  O   UNL     1       3.647   6.545   0.859  0.00  0.00    +0.000 OA
ATOM     19  C   UNL     1       5.548   5.192   1.720  0.00  0.00    +0.000 C 
ATOM     20  C   UNL     1       5.680   3.808   1.888  0.00  0.00    +0.000 C 
ATOM     21  C   UNL     1       4.939   2.797   0.870  0.00  0.00    +0.000 C 
ATOM     22  C   UNL     1       5.854   2.493  -0.436  0.00  0.00    +0.000 C 
ENDROOT
BRANCH   5  23
ATOM     23  O   UNL     1       1.345  -1.021   1.709  0.00  0.00    +0.000 OA
ATOM     24  H   UNL     1       1.148  -1.194   2.638  0.00  0.00    +0.000 HD
ENDBRANCH   5  23
BRANCH   5  25
ATOM     25  C   UNL     1       2.981  -2.639   2.373  0.00  0.00    +0.000 C 
ATOM     26  O   UNL     1       3.399  -3.721   1.924  0.00  0.00    +0.000 OA
BRANCH  25  27
ATOM     27  C   UNL     1       2.529  -2.791   3.955  0.00  0.00    +0.000 C 
BRANCH  27  28
ATOM     28  O   UNL     1       3.065  -4.138   4.480  0.00  0.00    +0.000 OA
BRANCH  28  29
ATOM     29  C   UNL     1       2.821  -4.593   5.751  0.00  0.00    +0.000 C 
ATOM     30  O   UNL     1       2.166  -3.981   6.585  0.00  0.00    +0.000 OA
BRANCH  29  31
ATOM     31  C   UNL     1       3.449  -5.939   6.118  0.00  0.00    +0.000 A 
ATOM     32  C   UNL     1       2.780  -6.812   7.010  0.00  0.00    +0.000 A 
ATOM     33  C   UNL     1       3.422  -7.939   7.570  0.00  0.00    +0.000 A 
ATOM     34  C   UNL     1       4.720  -8.271   7.186  0.00  0.00    +0.000 A 
ATOM     35  C   UNL     1       5.389  -7.424   6.295  0.00  0.00    +0.000 A 
ATOM     36  C   UNL     1       4.765  -6.269   5.763  0.00  0.00    +0.000 A 
BRANCH  35  37
ATOM     37  S   UNL     1       7.087  -7.790   5.873  0.00  0.00    +0.000 S 
ATOM     38  O   UNL     1       7.126  -9.160   5.410  0.00  0.00    +0.000 OA
ATOM     39  O   UNL     1       7.590  -6.693   5.078  0.00  0.00    +0.000 OA
BRANCH  37  40
ATOM     40  O   UNL     1       7.866  -7.751   7.291  0.00  0.00    +0.000 OA
ATOM     41  H   UNL     1       7.681  -8.554   7.816  0.00  0.00    +0.000 HD
ENDBRANCH  37  40
ENDBRANCH  35  37
ENDBRANCH  29  31
ENDBRANCH  28  29
ENDBRANCH  27  28
ENDBRANCH  25  27
ENDBRANCH   5  25
BRANCH   9  42
ATOM     42  O   UNL     1       4.762  -0.394   2.858  0.00  0.00    +0.000 OA
ATOM     43  H   UNL     1       3.839  -0.265   3.120  0.00  0.00    +0.000 HD
ENDBRANCH   9  42
TORSDOF 9
