REMARK  Name = Dexbrompheniramine
REMARK  7 active torsions:
REMARK  status: ('A' for Active; 'I' for Inactive)
REMARK    1  A    between atoms: C_1  and  N_2
REMARK    2  A    between atoms: N_2  and  C_3
REMARK    3  A    between atoms: N_2  and  C_4
REMARK    4  A    between atoms: C_4  and  C_5
REMARK    5  A    between atoms: C_5  and  C_6
REMARK    6  A    between atoms: C_6  and  C_7
REMARK    7  A    between atoms: C_6  and  C_14
REMARK                            x       y       z     vdW  Elec       q    Type
REMARK                         _______ _______ _______ _____ _____    ______ ____
ROOT
ATOM      1  C   UNL     1       4.898  -1.681   2.264  0.00  0.00    +0.000 C 
ENDROOT
BRANCH   1   2
ATOM      2  C   UNL     1       4.409  -3.141   2.249  0.00  0.00    +0.000 A 
ATOM      3  C   UNL     1       5.308  -4.220   2.256  0.00  0.00    +0.000 A 
ATOM      4  C   UNL     1       4.858  -5.540   2.178  0.00  0.00    +0.000 A 
ATOM      5  C   UNL     1       3.503  -5.804   2.038  0.00  0.00    +0.000 A 
ATOM      6 BR   UNL     1       2.895  -7.584   1.896  0.00  0.00    +0.000 Br
ATOM      7  C   UNL     1       2.587  -4.764   2.045  0.00  0.00    +0.000 A 
ATOM      8  C   UNL     1       3.040  -3.459   2.238  0.00  0.00    +0.000 A 
ENDBRANCH   1   2
BRANCH   1   9
ATOM      9  C   UNL     1       6.430  -1.552   2.307  0.00  0.00    +0.000 A 
ATOM     10  C   UNL     1       7.104  -1.562   3.527  0.00  0.00    +0.000 A 
ATOM     11  C   UNL     1       8.498  -1.576   3.519  0.00  0.00    +0.000 A 
ATOM     12  C   UNL     1       9.181  -1.578   2.310  0.00  0.00    +0.000 A 
ATOM     13  C   UNL     1       8.443  -1.571   1.142  0.00  0.00    +0.000 A 
ATOM     14  N   UNL     1       7.094  -1.563   1.121  0.00  0.00    +0.000 NA
ENDBRANCH   1   9
BRANCH   1  15
ATOM     15  C   UNL     1       4.404  -0.820   1.065  0.00  0.00    +0.000 C 
BRANCH  15  16
ATOM     16  C   UNL     1       2.886  -0.697   0.964  0.00  0.00    +0.000 C 
BRANCH  16  18
ATOM     17  C   UNL     1       0.901   0.068  -0.095  0.00  0.00    +0.000 C 
ATOM     18  N   UNL     1       2.366   0.146  -0.113  0.00  0.00    +0.000 NA
ATOM     19  C   UNL     1       2.821   1.523   0.001  0.00  0.00    +0.000 C 
ENDBRANCH  16  18
ENDBRANCH  15  16
ENDBRANCH   1  15
TORSDOF 5
