REMARK  Name = Dexchlorpheniramine maleate
REMARK  11 active torsions:
REMARK  status: ('A' for Active; 'I' for Inactive)
REMARK    1  A    between atoms: O_1  and  C_2
REMARK    2  A    between atoms: C_2  and  C_4
REMARK    3  A    between atoms: C_5  and  C_6
REMARK    4  A    between atoms: C_6  and  O_7
REMARK    5  A    between atoms: C_9  and  N_10
REMARK    6  A    between atoms: N_10  and  C_11
REMARK    7  A    between atoms: N_10  and  C_12
REMARK    8  A    between atoms: C_12  and  C_13
REMARK    9  A    between atoms: C_13  and  C_14
REMARK   10  A    between atoms: C_14  and  C_15
REMARK   11  A    between atoms: C_14  and  C_22
REMARK                            x       y       z     vdW  Elec       q    Type
REMARK                         _______ _______ _______ _____ _____    ______ ____
ROOT
ATOM      1  C   UNL     1       3.396   1.030  -1.579  0.00  0.00    +0.000 C 
ATOM      2  C   UNL     1       4.678   0.912  -1.247  0.00  0.00    +0.000 C 
ENDROOT
BRANCH   1   3
ATOM      3  C   UNL     1       2.464   1.624  -0.637  0.00  0.00    +0.000 C 
ATOM      4  O   UNL     1       2.745   2.052   0.435  0.00  0.00    +0.000 OA
BRANCH   3   5
ATOM      5  O   UNL     1       1.233   1.417  -1.148  0.00  0.00    +0.000 OA
ATOM      6  H   UNL     1       1.261   0.459  -1.372  0.00  0.00    +0.000 HD
ENDBRANCH   3   5
ENDBRANCH   1   3
BRANCH   2   7
ATOM      7  C   UNL     1       5.521   0.949  -0.014  0.00  0.00    +0.000 C 
ATOM      8  O   UNL     1       6.671   0.527  -0.070  0.00  0.00    +0.000 OA
BRANCH   7   9
ATOM      9  O   UNL     1       4.929   1.131   1.168  0.00  0.00    +0.000 OA
ATOM     10  H   UNL     1       3.962   1.301   1.113  0.00  0.00    +0.000 HD
ENDBRANCH   7   9
ENDBRANCH   2   7
TORSDOF 4
REMARK  Name = Dexchlorpheniramine maleate
REMARK  11 active torsions:
REMARK  status: ('A' for Active; 'I' for Inactive)
REMARK    1  A    between atoms: O_1  and  C_2
REMARK    2  A    between atoms: C_2  and  C_4
REMARK    3  A    between atoms: C_5  and  C_6
REMARK    4  A    between atoms: C_6  and  O_7
REMARK    5  A    between atoms: C_9  and  N_10
REMARK    6  A    between atoms: N_10  and  C_11
REMARK    7  A    between atoms: N_10  and  C_12
REMARK    8  A    between atoms: C_12  and  C_13
REMARK    9  A    between atoms: C_13  and  C_14
REMARK   10  A    between atoms: C_14  and  C_15
REMARK   11  A    between atoms: C_14  and  C_22
REMARK                            x       y       z     vdW  Elec       q    Type
REMARK                         _______ _______ _______ _____ _____    ______ ____
ROOT
ATOM      1  C   UNL     2       4.951  -2.502  -1.945  0.00  0.00    +0.000 C 
ENDROOT
BRANCH   1   2
ATOM      2  C   UNL     2       4.416  -2.059  -3.339  0.00  0.00    +0.000 A 
ATOM      3  C   UNL     2       4.468  -0.783  -3.977  0.00  0.00    +0.000 A 
ATOM      4  C   UNL     2       3.912  -0.513  -5.226  0.00  0.00    +0.000 A 
ATOM      5  C   UNL     2       3.450  -1.573  -5.964  0.00  0.00    +0.000 A 
ATOM      6 CL   UNL     2       2.869  -1.291  -7.551  0.00  0.00    +0.000 Cl
ATOM      7  C   UNL     2       3.504  -2.862  -5.435  0.00  0.00    +0.000 A 
ATOM      8  C   UNL     2       3.951  -3.099  -4.133  0.00  0.00    +0.000 A 
ENDBRANCH   1   2
BRANCH   1   9
ATOM      9  C   UNL     2       6.494  -2.410  -1.909  0.00  0.00    +0.000 A 
ATOM     10  C   UNL     2       7.183  -2.856  -0.784  0.00  0.00    +0.000 A 
ATOM     11  C   UNL     2       8.564  -2.725  -0.740  0.00  0.00    +0.000 A 
ATOM     12  C   UNL     2       9.228  -2.135  -1.809  0.00  0.00    +0.000 A 
ATOM     13  C   UNL     2       8.475  -1.657  -2.864  0.00  0.00    +0.000 A 
ATOM     14  N   UNL     2       7.134  -1.785  -2.935  0.00  0.00    +0.000 NA
ENDBRANCH   1   9
BRANCH   1  15
ATOM     15  C   UNL     2       4.339  -1.825  -0.692  0.00  0.00    +0.000 C 
BRANCH  15  16
ATOM     16  C   UNL     2       2.732  -1.737  -0.613  0.00  0.00    +0.000 C 
BRANCH  16  18
ATOM     17  C   UNL     2       0.536  -0.632   0.388  0.00  0.00    +0.000 C 
ATOM     18  N   UNL     2       2.034  -0.787   0.312  0.00  0.00    +0.000 NA
ATOM     19  C   UNL     2       2.612  -0.777   1.656  0.00  0.00    +0.000 C 
ENDBRANCH  16  18
ENDBRANCH  15  16
ENDBRANCH   1  15
TORSDOF 5
