REMARK  Name = Dexfenfluramine
REMARK  7 active torsions:
REMARK  status: ('A' for Active; 'I' for Inactive)
REMARK    1  A    between atoms: C_1  and  C_2
REMARK    2  A    between atoms: C_2  and  N_3
REMARK    3  A    between atoms: N_3  and  C_4
REMARK    4  A    between atoms: C_4  and  C_5
REMARK    5  A    between atoms: C_4  and  C_6
REMARK    6  A    between atoms: C_6  and  C_7
REMARK    7  A    between atoms: C_11  and  C_13
REMARK                            x       y       z     vdW  Elec       q    Type
REMARK                         _______ _______ _______ _____ _____    ______ ____
ROOT
ATOM      1  C   UNL     1       6.497   2.721   1.035  0.00  0.00    +0.000 A 
ATOM      2  C   UNL     1       7.174   3.859   1.478  0.00  0.00    +0.000 A 
ATOM      3  C   UNL     1       8.567   3.946   1.330  0.00  0.00    +0.000 A 
ATOM      4  C   UNL     1       9.282   2.919   0.707  0.00  0.00    +0.000 A 
ATOM      5  C   UNL     1       8.626   1.766   0.288  0.00  0.00    +0.000 A 
ATOM      6  C   UNL     1       7.264   1.646   0.574  0.00  0.00    +0.000 A 
ENDROOT
BRANCH   5   7
ATOM      7  C   UNL     1       9.295   0.681  -0.518  0.00  0.00    +0.000 C 
ATOM      8  F   UNL     1       9.938   1.166  -1.616  0.00  0.00    +0.000 F 
ATOM      9  F   UNL     1      10.219  -0.013   0.195  0.00  0.00    +0.000 F 
ATOM     10  F   UNL     1       8.419  -0.252  -0.999  0.00  0.00    +0.000 F 
ENDBRANCH   5   7
BRANCH   1  11
ATOM     11  C   UNL     1       4.976   2.699   0.944  0.00  0.00    +0.000 C 
BRANCH  11  12
ATOM     12  C   UNL     1       4.381   1.386   0.353  0.00  0.00    +0.000 C 
ATOM     13  C   UNL     1       4.783   1.178  -1.129  0.00  0.00    +0.000 C 
BRANCH  12  14
ATOM     14  N   UNL     1       2.909   1.372   0.443  0.00  0.00    +0.000 NA
ATOM     15  H   UNL     1       2.620   1.574   1.401  0.00  0.00    +0.000 HD
BRANCH  14  17
ATOM     16  C   UNL     1       0.862   0.088   0.055  0.00  0.00    +0.000 C 
ATOM     17  C   UNL     1       2.373   0.067   0.044  0.00  0.00    +0.000 C 
ENDBRANCH  14  17
ENDBRANCH  12  14
ENDBRANCH  11  12
ENDBRANCH   1  11
TORSDOF 5
