REMARK  Name = Dexibuprofen
REMARK  8 active torsions:
REMARK  status: ('A' for Active; 'I' for Inactive)
REMARK    1  A    between atoms: C_1  and  C_2
REMARK    2  A    between atoms: C_2  and  C_3
REMARK    3  A    between atoms: C_2  and  C_4
REMARK    4  A    between atoms: C_4  and  C_5
REMARK    5  A    between atoms: C_8  and  C_11
REMARK    6  A    between atoms: C_11  and  C_12
REMARK    7  A    between atoms: C_11  and  C_13
REMARK    8  A    between atoms: C_13  and  O_14
REMARK                            x       y       z     vdW  Elec       q    Type
REMARK                         _______ _______ _______ _____ _____    ______ ____
ROOT
ATOM      1  C   UNL     1       9.679  -3.577  -3.574  0.00  0.00    +0.000 A 
ATOM      2  C   UNL     1      10.005  -2.224  -3.522  0.00  0.00    +0.000 A 
ATOM      3  C   UNL     1       9.860  -1.522  -2.327  0.00  0.00    +0.000 A 
ATOM      4  C   UNL     1       9.325  -2.142  -1.186  0.00  0.00    +0.000 A 
ATOM      5  C   UNL     1       9.029  -3.502  -1.234  0.00  0.00    +0.000 A 
ATOM      6  C   UNL     1       9.125  -4.177  -2.434  0.00  0.00    +0.000 A 
ENDROOT
BRANCH   4   7
ATOM      7  C   UNL     1       8.870  -1.364   0.035  0.00  0.00    +0.000 C 
ATOM      8  C   UNL     1       7.334  -1.452   0.073  0.00  0.00    +0.000 C 
BRANCH   7   9
ATOM      9  C   UNL     1       9.414   0.061   0.074  0.00  0.00    +0.000 C 
ATOM     10  O   UNL     1      10.620   0.313   0.119  0.00  0.00    +0.000 OA
BRANCH   9  11
ATOM     11  O   UNL     1       8.516   1.065   0.010  0.00  0.00    +0.000 OA
ATOM     12  H   UNL     1       7.577   0.819  -0.067  0.00  0.00    +0.000 HD
ENDBRANCH   9  11
ENDBRANCH   7   9
ENDBRANCH   4   7
BRANCH   1  13
ATOM     13  C   UNL     1      10.015  -4.384  -4.806  0.00  0.00    +0.000 C 
BRANCH  13  15
ATOM     14  C   UNL     1      10.211  -6.668  -5.866  0.00  0.00    +0.000 C 
ATOM     15  C   UNL     1       9.933  -5.908  -4.578  0.00  0.00    +0.000 C 
ATOM     16  C   UNL     1      10.922  -6.393  -3.499  0.00  0.00    +0.000 C 
ENDBRANCH  13  15
ENDBRANCH   1  13
TORSDOF 5
