REMARK  Name = Dexketoprofen
REMARK  6 active torsions:
REMARK  status: ('A' for Active; 'I' for Inactive)
REMARK    1  A    between atoms: C_2  and  C_3
REMARK    2  A    between atoms: C_2  and  C_4
REMARK    3  A    between atoms: C_2  and  C_7
REMARK    4  A    between atoms: C_4  and  O_5
REMARK    5  A    between atoms: C_9  and  C_13
REMARK    6  A    between atoms: C_13  and  C_15
REMARK                            x       y       z     vdW  Elec       q    Type
REMARK                         _______ _______ _______ _____ _____    ______ ____
ROOT
ATOM      1  C   UNL     1       2.633   1.377   0.257  0.00  0.00    +0.000 A 
ATOM      2  C   UNL     1       3.531   1.652   1.298  0.00  0.00    +0.000 A 
ATOM      3  C   UNL     1       3.764   2.970   1.695  0.00  0.00    +0.000 A 
ATOM      4  C   UNL     1       3.251   4.020   0.932  0.00  0.00    +0.000 A 
ATOM      5  C   UNL     1       2.380   3.763  -0.119  0.00  0.00    +0.000 A 
ATOM      6  C   UNL     1       2.049   2.452  -0.435  0.00  0.00    +0.000 A 
ENDROOT
BRANCH   1   7
ATOM      7  C   UNL     1       2.222  -0.039  -0.117  0.00  0.00    +0.000 C 
ATOM      8  C   UNL     1       2.638  -1.079   0.928  0.00  0.00    +0.000 C 
BRANCH   7   9
ATOM      9  C   UNL     1       2.669  -0.499  -1.502  0.00  0.00    +0.000 C 
ATOM     10  O   UNL     1       2.335  -1.587  -1.972  0.00  0.00    +0.000 OA
BRANCH   9  11
ATOM     11  O   UNL     1       3.441   0.345  -2.219  0.00  0.00    +0.000 OA
ATOM     12  H   UNL     1       3.684   1.182  -1.777  0.00  0.00    +0.000 HD
ENDBRANCH   9  11
ENDBRANCH   7   9
ENDBRANCH   1   7
BRANCH   3  13
ATOM     13  C   UNL     1       4.469   3.204   2.980  0.00  0.00    +0.000 C 
ATOM     14  O   UNL     1       4.933   2.265   3.622  0.00  0.00    +0.000 OA
BRANCH  13  15
ATOM     15  C   UNL     1       4.569   4.560   3.552  0.00  0.00    +0.000 A 
ATOM     16  C   UNL     1       5.832   5.019   3.923  0.00  0.00    +0.000 A 
ATOM     17  C   UNL     1       5.946   6.241   4.579  0.00  0.00    +0.000 A 
ATOM     18  C   UNL     1       4.814   7.032   4.791  0.00  0.00    +0.000 A 
ATOM     19  C   UNL     1       3.556   6.588   4.382  0.00  0.00    +0.000 A 
ATOM     20  C   UNL     1       3.427   5.338   3.783  0.00  0.00    +0.000 A 
ENDBRANCH  13  15
ENDBRANCH   3  13
TORSDOF 5
