REMARK  Name = Dexmethylphenidate
REMARK  5 active torsions:
REMARK  status: ('A' for Active; 'I' for Inactive)
REMARK    1  A    between atoms: C_2  and  C_3
REMARK    2  A    between atoms: C_2  and  C_7
REMARK    3  A    between atoms: C_2  and  C_13
REMARK    4  A    between atoms: C_3  and  O_5
REMARK    5  A    between atoms: O_5  and  C_6
REMARK                            x       y       z     vdW  Elec       q    Type
REMARK                         _______ _______ _______ _____ _____    ______ ____
ROOT
ATOM      1  C   UNL     1       4.287  -1.034   1.310  0.00  0.00    +0.000 C 
ENDROOT
BRANCH   1   2
ATOM      2  C   UNL     1       2.658  -1.094   1.069  0.00  0.00    +0.000 C 
ATOM      3  C   UNL     1       2.123  -2.391   0.392  0.00  0.00    +0.000 C 
ATOM      4  C   UNL     1       2.109  -3.594   1.314  0.00  0.00    +0.000 C 
ATOM      5  C   UNL     1       1.402  -3.186   2.694  0.00  0.00    +0.000 C 
ATOM      6  C   UNL     1       1.652  -1.694   3.245  0.00  0.00    +0.000 C 
ATOM      7  N   UNL     1       1.723  -0.709   2.172  0.00  0.00    +0.000 NA
ATOM      8  H   UNL     1       2.011   0.190   2.564  0.00  0.00    +0.000 HD
ENDBRANCH   1   2
BRANCH   1   9
ATOM      9  C   UNL     1       4.957  -1.773   2.503  0.00  0.00    +0.000 A 
ATOM     10  C   UNL     1       4.238  -2.697   3.205  0.00  0.00    +0.000 A 
ATOM     11  C   UNL     1       4.407  -3.309   4.426  0.00  0.00    +0.000 A 
ATOM     12  C   UNL     1       5.652  -3.199   4.921  0.00  0.00    +0.000 A 
ATOM     13  C   UNL     1       6.575  -2.436   4.180  0.00  0.00    +0.000 A 
ATOM     14  C   UNL     1       6.231  -1.696   3.000  0.00  0.00    +0.000 A 
ENDBRANCH   1   9
BRANCH   1  15
ATOM     15  C   UNL     1       4.981  -1.428   0.002  0.00  0.00    +0.000 C 
ATOM     16  O   UNL     1       5.748  -2.397  -0.108  0.00  0.00    +0.000 OA
BRANCH  15  17
ATOM     17  O   UNL     1       4.679  -0.612  -1.047  0.00  0.00    +0.000 OA
ATOM     18  C   UNL     1       5.348  -1.000  -2.257  0.00  0.00    +0.000 C 
ENDBRANCH  15  17
ENDBRANCH   1  15
TORSDOF 4
