REMARK  Name = Dexmedetomidine
REMARK  5 active torsions:
REMARK  status: ('A' for Active; 'I' for Inactive)
REMARK    1  A    between atoms: C_1  and  C_2
REMARK    2  A    between atoms: C_2  and  C_3
REMARK    3  A    between atoms: C_2  and  C_8
REMARK    4  A    between atoms: C_9  and  C_10
REMARK    5  A    between atoms: C_11  and  C_12
REMARK                            x       y       z     vdW  Elec       q    Type
REMARK                         _______ _______ _______ _____ _____    ______ ____
ROOT
ATOM      1  C   UNL     1       0.990   0.121   0.083  0.00  0.00    +0.000 C 
ATOM      2  C   UNL     1       2.520   0.027   0.049  0.00  0.00    +0.000 C 
ENDROOT
BRANCH   2   3
ATOM      3  C   UNL     1       3.083  -1.404   0.073  0.00  0.00    +0.000 A 
ATOM      4  C   UNL     1       4.476  -1.689   0.119  0.00  0.00    +0.000 A 
ATOM      5  C   UNL     1       5.526  -0.609   0.183  0.00  0.00    +0.000 C 
ATOM      6  C   UNL     1       4.918  -3.037   0.091  0.00  0.00    +0.000 A 
ATOM      7  C   UNL     1       6.376  -3.409   0.064  0.00  0.00    +0.000 C 
ATOM      8  C   UNL     1       3.985  -4.084   0.087  0.00  0.00    +0.000 A 
ATOM      9  C   UNL     1       2.628  -3.818   0.117  0.00  0.00    +0.000 A 
ATOM     10  C   UNL     1       2.188  -2.499   0.105  0.00  0.00    +0.000 A 
ENDBRANCH   2   3
BRANCH   2  11
ATOM     11  C   UNL     1       3.062   0.707  -1.185  0.00  0.00    +0.000 A 
ATOM     12  C   UNL     1       3.911   1.798  -1.255  0.00  0.00    +0.000 A 
ATOM     13  N   UNL     1       4.222   1.939  -2.577  0.00  0.00    +0.000 N 
ATOM     14  C   UNL     1       3.478   1.024  -3.265  0.00  0.00    +0.000 A 
ATOM     15  N   UNL     1       2.757   0.281  -2.462  0.00  0.00    +0.000 NA
ATOM     16  H   UNL     1       4.889   2.583  -2.971  0.00  0.00    +0.000 HD
ENDBRANCH   2  11
TORSDOF 2
