REMARK  Name = Dexpanthenol
REMARK  11 active torsions:
REMARK  status: ('A' for Active; 'I' for Inactive)
REMARK    1  A    between atoms: C_1  and  C_2
REMARK    2  A    between atoms: C_2  and  C_3
REMARK    3  A    between atoms: C_2  and  C_4
REMARK    4  A    between atoms: C_2  and  C_6
REMARK    5  A    between atoms: C_4  and  O_5
REMARK    6  A    between atoms: C_6  and  O_7
REMARK    7  A    between atoms: C_6  and  C_8
REMARK    8  A    between atoms: N_10  and  C_11
REMARK    9  A    between atoms: C_11  and  C_12
REMARK   10  A    between atoms: C_12  and  C_13
REMARK   11  A    between atoms: C_13  and  O_14
REMARK                            x       y       z     vdW  Elec       q    Type
REMARK                         _______ _______ _______ _____ _____    ______ ____
ROOT
ATOM      1  C   UNL     1       3.076  -1.311   0.373  0.00  0.00    +0.000 C 
ENDROOT
BRANCH   1   2
ATOM      2  C   UNL     1       4.627  -1.322   0.398  0.00  0.00    +0.000 C 
ATOM      3  O   UNL     1       5.320  -0.352   0.086  0.00  0.00    +0.000 OA
ATOM      4  N   UNL     1       5.224  -2.490   0.800  0.00  0.00    +0.000 N 
ATOM      5  H   UNL     1       4.655  -3.310   0.985  0.00  0.00    +0.000 HD
BRANCH   4   6
ATOM      6  C   UNL     1       6.671  -2.547   0.795  0.00  0.00    +0.000 C 
BRANCH   6   7
ATOM      7  C   UNL     1       7.210  -3.889   1.238  0.00  0.00    +0.000 C 
BRANCH   7   8
ATOM      8  C   UNL     1       8.732  -3.882   1.237  0.00  0.00    +0.000 C 
BRANCH   8   9
ATOM      9  O   UNL     1       9.214  -5.155   1.642  0.00  0.00    +0.000 OA
ATOM     10  H   UNL     1       8.893  -5.318   2.546  0.00  0.00    +0.000 HD
ENDBRANCH   8   9
ENDBRANCH   7   8
ENDBRANCH   6   7
ENDBRANCH   4   6
ENDBRANCH   1   2
BRANCH   1  12
ATOM     11  C   UNL     1       0.954   0.037  -0.078  0.00  0.00    +0.000 C 
ATOM     12  C   UNL     1       2.500   0.066  -0.089  0.00  0.00    +0.000 C 
ATOM     13  C   UNL     1       2.936   0.385  -1.539  0.00  0.00    +0.000 C 
BRANCH  12  14
ATOM     14  C   UNL     1       2.960   1.177   0.892  0.00  0.00    +0.000 C 
BRANCH  14  15
ATOM     15  O   UNL     1       2.450   2.453   0.519  0.00  0.00    +0.000 OA
ATOM     16  H   UNL     1       2.865   2.687  -0.329  0.00  0.00    +0.000 HD
ENDBRANCH  14  15
ENDBRANCH  12  14
ENDBRANCH   1  12
BRANCH   1  17
ATOM     17  O   UNL     1       2.589  -2.385  -0.436  0.00  0.00    +0.000 OA
ATOM     18  H   UNL     1       2.855  -2.208  -1.355  0.00  0.00    +0.000 HD
ENDBRANCH   1  17
TORSDOF 9
