REMARK  Name = Dexrazoxane
REMARK  4 active torsions:
REMARK  status: ('A' for Active; 'I' for Inactive)
REMARK    1  A    between atoms: C_1  and  C_2
REMARK    2  A    between atoms: C_2  and  C_3
REMARK    3  A    between atoms: C_2  and  N_12
REMARK    4  A    between atoms: C_3  and  N_4
REMARK                            x       y       z     vdW  Elec       q    Type
REMARK                         _______ _______ _______ _____ _____    ______ ____
ROOT
ATOM      1  C   UNL     1       0.960   0.845  -0.053  0.00  0.00    +0.000 C 
ATOM      2  C   UNL     1       2.459   0.374  -0.126  0.00  0.00    +0.000 C 
ENDROOT
BRANCH   2   3
ATOM      3  N   UNL     1       3.167   1.445  -0.919  0.00  0.00    +0.000 NA
ATOM      4  C   UNL     1       2.285   2.426  -1.617  0.00  0.00    +0.000 C 
ATOM      5  C   UNL     1       1.482   1.754  -2.740  0.00  0.00    +0.000 C 
ATOM      6  O   UNL     1       0.378   2.150  -3.105  0.00  0.00    +0.000 OA
ATOM      7  N   UNL     1       2.061   0.642  -3.301  0.00  0.00    +0.000 N 
ATOM      8  C   UNL     1       3.341   0.199  -3.053  0.00  0.00    +0.000 C 
ATOM      9  O   UNL     1       3.800  -0.770  -3.653  0.00  0.00    +0.000 OA
ATOM     10  C   UNL     1       4.104   0.915  -1.922  0.00  0.00    +0.000 C 
ATOM     11  H   UNL     1       1.498   0.114  -3.952  0.00  0.00    +0.000 HD
ENDBRANCH   2   3
BRANCH   2  12
ATOM     12  C   UNL     1       2.879  -1.184  -0.573  0.00  0.00    +0.000 C 
BRANCH  12  13
ATOM     13  N   UNL     1       2.427  -2.476  -0.015  0.00  0.00    +0.000 NA
ATOM     14  C   UNL     1       1.002  -2.630  -0.288  0.00  0.00    +0.000 C 
ATOM     15  C   UNL     1       0.214  -1.660   0.558  0.00  0.00    +0.000 C 
ATOM     16  O   UNL     1      -0.855  -1.228   0.121  0.00  0.00    +0.000 OA
ATOM     17  N   UNL     1       0.851  -1.210   1.747  0.00  0.00    +0.000 N 
ATOM     18  C   UNL     1       2.143  -1.498   2.179  0.00  0.00    +0.000 C 
ATOM     19  O   UNL     1       2.731  -0.848   2.999  0.00  0.00    +0.000 OA
ATOM     20  C   UNL     1       2.726  -2.651   1.408  0.00  0.00    +0.000 C 
ATOM     21  H   UNL     1       0.587  -0.311   2.133  0.00  0.00    +0.000 HD
ENDBRANCH  12  13
ENDBRANCH   2  12
TORSDOF 3
