REMARK  Name = Dextromethorphan
REMARK  3 active torsions:
REMARK  status: ('A' for Active; 'I' for Inactive)
REMARK    1  A    between atoms: N_10  and  C_11
REMARK    2  A    between atoms: C_17  and  O_18
REMARK    3  A    between atoms: O_18  and  C_19
REMARK                            x       y       z     vdW  Elec       q    Type
REMARK                         _______ _______ _______ _____ _____    ______ ____
ROOT
ATOM      1  C   UNL     1       1.858   0.244  -0.113  0.00  0.00    +0.000 C 
ATOM      2  C   UNL     1       2.546   1.470   0.429  0.00  0.00    +0.000 C 
ATOM      3  C   UNL     1       2.427   1.569   1.902  0.00  0.00    +0.000 C 
ATOM      4  C   UNL     1       2.820   0.236   2.412  0.00  0.00    +0.000 C 
ATOM      5  C   UNL     1       2.951  -0.896   1.195  0.00  0.00    +0.000 C 
ATOM      6  C   UNL     1       2.225  -1.004  -0.657  0.00  0.00    +0.000 C 
ATOM      7  C   UNL     1       2.340  -0.548  -2.870  0.00  0.00    +0.000 C 
ATOM      8  C   UNL     1       2.366   0.865  -3.340  0.00  0.00    +0.000 C 
ATOM      9  N   UNL     1       1.678   0.912  -2.125  0.00  0.00    +0.000 NA
ATOM     10  C   UNL     1       0.267   0.202  -2.348  0.00  0.00    +0.000 C 
ATOM     11  C   UNL     1       2.831  -0.111  -1.191  0.00  0.00    +0.000 C 
ATOM     12  C   UNL     1       3.044  -2.033  -2.001  0.00  0.00    +0.000 C 
ATOM     13  C   UNL     1       2.772  -3.121  -1.197  0.00  0.00    +0.000 A 
ATOM     14  C   UNL     1       2.308  -2.612  -0.079  0.00  0.00    +0.000 A 
ATOM     15  C   UNL     1       2.315  -3.576   0.947  0.00  0.00    +0.000 A 
ATOM     16  C   UNL     1       2.458  -4.938   0.554  0.00  0.00    +0.000 A 
ATOM     17  C   UNL     1       2.546  -5.289  -0.798  0.00  0.00    +0.000 A 
ATOM     18  C   UNL     1       2.686  -4.342  -1.721  0.00  0.00    +0.000 A 
ENDROOT
BRANCH  16  19
ATOM     19  O   UNL     1       2.424  -5.941   1.486  0.00  0.00    +0.000 OA
ATOM     20  C   UNL     1       3.423  -6.938   1.226  0.00  0.00    +0.000 C 
ENDBRANCH  16  19
TORSDOF 1
