REMARK  Name = Dextropropoxyphene
REMARK  13 active torsions:
REMARK  status: ('A' for Active; 'I' for Inactive)
REMARK    1  A    between atoms: C_1  and  C_2
REMARK    2  A    between atoms: C_2  and  C_3
REMARK    3  A    between atoms: C_3  and  O_5
REMARK    4  A    between atoms: O_5  and  C_6
REMARK    5  A    between atoms: C_6  and  C_7
REMARK    6  A    between atoms: C_6  and  C_14
REMARK    7  A    between atoms: C_6  and  C_20
REMARK    8  A    between atoms: C_7  and  C_8
REMARK    9  A    between atoms: C_14  and  C_15
REMARK   10  A    between atoms: C_14  and  C_16
REMARK   11  A    between atoms: C_16  and  N_17
REMARK   12  A    between atoms: N_17  and  C_18
REMARK   13  A    between atoms: N_17  and  C_19
REMARK                            x       y       z     vdW  Elec       q    Type
REMARK                         _______ _______ _______ _____ _____    ______ ____
ROOT
ATOM      1  C   UNL     1       4.916   5.115  -1.947  0.00  0.00    +0.000 C 
ENDROOT
BRANCH   1   2
ATOM      2  C   UNL     1       3.817   6.296  -2.283  0.00  0.00    +0.000 A 
ATOM      3  C   UNL     1       4.189   7.649  -2.099  0.00  0.00    +0.000 A 
ATOM      4  C   UNL     1       3.220   8.655  -1.879  0.00  0.00    +0.000 A 
ATOM      5  C   UNL     1       1.854   8.359  -1.903  0.00  0.00    +0.000 A 
ATOM      6  C   UNL     1       1.451   7.083  -2.292  0.00  0.00    +0.000 A 
ATOM      7  C   UNL     1       2.425   6.075  -2.572  0.00  0.00    +0.000 A 
ENDBRANCH   1   2
BRANCH   1   8
ATOM      8  C   UNL     1       4.450   3.898  -0.975  0.00  0.00    +0.000 C 
ATOM      9  C   UNL     1       4.823   2.494  -1.538  0.00  0.00    +0.000 C 
BRANCH   8  10
ATOM     10  C   UNL     1       2.963   3.824  -0.600  0.00  0.00    +0.000 C 
BRANCH  10  11
ATOM     11  N   UNL     1       2.390   4.837   0.310  0.00  0.00    +0.000 NA
ATOM     12  C   UNL     1       2.996   6.156   0.390  0.00  0.00    +0.000 C 
ATOM     13  C   UNL     1       0.938   4.909   0.127  0.00  0.00    +0.000 C 
ENDBRANCH  10  11
ENDBRANCH   8  10
ENDBRANCH   1   8
BRANCH   1  14
ATOM     14  O   UNL     1       6.166   5.651  -1.210  0.00  0.00    +0.000 OA
BRANCH  14  15
ATOM     15  C   UNL     1       7.272   4.852  -1.056  0.00  0.00    +0.000 C 
ATOM     16  O   UNL     1       7.369   3.708  -1.537  0.00  0.00    +0.000 OA
BRANCH  15  18
ATOM     17  C   UNL     1       9.621   4.384  -0.354  0.00  0.00    +0.000 C 
ATOM     18  C   UNL     1       8.477   5.429  -0.350  0.00  0.00    +0.000 C 
ENDBRANCH  15  18
ENDBRANCH  14  15
ENDBRANCH   1  14
BRANCH   1  19
ATOM     19  C   UNL     1       5.331   4.654  -3.377  0.00  0.00    +0.000 C 
BRANCH  19  20
ATOM     20  C   UNL     1       5.875   5.819  -4.177  0.00  0.00    +0.000 A 
ATOM     21  C   UNL     1       7.180   6.265  -3.942  0.00  0.00    +0.000 A 
ATOM     22  C   UNL     1       7.598   7.496  -4.424  0.00  0.00    +0.000 A 
ATOM     23  C   UNL     1       6.744   8.250  -5.223  0.00  0.00    +0.000 A 
ATOM     24  C   UNL     1       5.445   7.813  -5.475  0.00  0.00    +0.000 A 
ATOM     25  C   UNL     1       5.013   6.597  -4.961  0.00  0.00    +0.000 A 
ENDBRANCH  19  20
ENDBRANCH   1  19
TORSDOF 9
