REMARK  Name = Dezocine
REMARK  3 active torsions:
REMARK  status: ('A' for Active; 'I' for Inactive)
REMARK    1  A    between atoms: C_7  and  O_8
REMARK    2  A    between atoms: C_11  and  C_12
REMARK    3  A    between atoms: C_18  and  N_19
REMARK                            x       y       z     vdW  Elec       q    Type
REMARK                         _______ _______ _______ _____ _____    ______ ____
ROOT
ATOM      1  C   UNL     1       2.079  -0.604   0.363  0.00  0.00    +0.000 C 
ATOM      2  C   UNL     1       2.604   0.900  -0.087  0.00  0.00    +0.000 C 
ATOM      3  C   UNL     1       4.060   1.051  -0.562  0.00  0.00    +0.000 A 
ATOM      4  C   UNL     1       4.695   2.310  -0.782  0.00  0.00    +0.000 A 
ATOM      5  C   UNL     1       6.079   2.387  -1.069  0.00  0.00    +0.000 A 
ATOM      6  C   UNL     1       6.832   1.245  -1.154  0.00  0.00    +0.000 A 
ATOM      7  C   UNL     1       6.196   0.006  -1.064  0.00  0.00    +0.000 A 
ATOM      8  C   UNL     1       4.804  -0.088  -0.850  0.00  0.00    +0.000 A 
ATOM      9  C   UNL     1       4.180  -1.485  -0.761  0.00  0.00    +0.000 C 
ATOM     10  C   UNL     1       4.676  -2.403  -1.882  0.00  0.00    +0.000 C 
ATOM     11  C   UNL     1       4.790  -1.975   0.554  0.00  0.00    +0.000 C 
ATOM     12  C   UNL     1       4.273  -3.330   0.884  0.00  0.00    +0.000 C 
ATOM     13  C   UNL     1       3.993  -3.362   2.350  0.00  0.00    +0.000 C 
ATOM     14  C   UNL     1       2.488  -3.045   2.360  0.00  0.00    +0.000 C 
ATOM     15  C   UNL     1       2.231  -1.392   1.919  0.00  0.00    +0.000 C 
ATOM     16  C   UNL     1       2.584  -1.418  -0.828  0.00  0.00    +0.000 C 
ENDROOT
BRANCH  16  17
ATOM     17  N   UNL     1       1.694  -2.580  -0.911  0.00  0.00    +0.000 NA
ATOM     18  H   UNL     1       1.316  -2.801   0.008  0.00  0.00    +0.000 HD
ATOM     19  H   UNL     1       2.174  -3.402  -1.254  0.00  0.00    +0.000 HD
ENDBRANCH  16  17
BRANCH   6  20
ATOM     20  O   UNL     1       8.177   1.199  -1.331  0.00  0.00    +0.000 OA
ATOM     21  H   UNL     1       8.523   2.109  -1.410  0.00  0.00    +0.000 HD
ENDBRANCH   6  20
TORSDOF 2
