REMARK  Name = Diacetyl benzoyl lathyrol
REMARK  13 active torsions:
REMARK  status: ('A' for Active; 'I' for Inactive)
REMARK    1  A    between atoms: C_1  and  C_2
REMARK    2  A    between atoms: C_4  and  O_5
REMARK    3  A    between atoms: O_5  and  C_6
REMARK    4  A    between atoms: C_6  and  C_7
REMARK    5  A    between atoms: C_10  and  O_11
REMARK    6  A    between atoms: O_11  and  C_12
REMARK    7  A    between atoms: C_12  and  C_14
REMARK    8  A    between atoms: C_20  and  O_21
REMARK    9  A    between atoms: O_21  and  C_22
REMARK   10  A    between atoms: C_22  and  C_23
REMARK   11  A    between atoms: C_32  and  C_33
REMARK   12  A    between atoms: C_36  and  C_37
REMARK   13  A    between atoms: C_36  and  C_38
REMARK                            x       y       z     vdW  Elec       q    Type
REMARK                         _______ _______ _______ _____ _____    ______ ____
ROOT
ATOM      1  C   UNL     1       3.520  -0.101   1.713  0.00  0.00    +0.000 C 
ATOM      2  C   UNL     1       2.997   0.054   0.341  0.00  0.00    +0.000 C 
ATOM      3  C   UNL     1       3.088   1.203  -0.531  0.00  0.00    +0.000 C 
ATOM      4  C   UNL     1       1.642   0.761  -0.813  0.00  0.00    +0.000 C 
ATOM      5  C   UNL     1       1.749  -1.240  -0.486  0.00  0.00    +0.000 C 
ATOM      6  C   UNL     1       3.171  -1.036  -0.766  0.00  0.00    +0.000 C 
ATOM      7  C   UNL     1       1.776  -2.955  -1.048  0.00  0.00    +0.000 C 
ATOM      8  C   UNL     1       0.343  -3.328  -1.136  0.00  0.00    +0.000 C 
ATOM      9  C   UNL     1      -0.407  -3.967  -0.236  0.00  0.00    +0.000 C 
ATOM     10  C   UNL     1      -0.157  -2.771  -2.400  0.00  0.00    +0.000 C 
ATOM     11  C   UNL     1      -1.312  -1.866  -2.192  0.00  0.00    +0.000 C 
ATOM     12  C   UNL     1      -1.424  -1.102  -3.462  0.00  0.00    +0.000 C 
ATOM     13  C   UNL     1      -2.055   0.184  -3.397  0.00  0.00    +0.000 C 
ATOM     14  C   UNL     1      -0.817   0.965  -3.217  0.00  0.00    +0.000 C 
ATOM     15  C   UNL     1      -0.373   1.148  -1.962  0.00  0.00    +0.000 C 
ATOM     16  C   UNL     1      -1.128   1.020  -0.610  0.00  0.00    +0.000 C 
ATOM     17  C   UNL     1       1.044   1.468  -1.898  0.00  0.00    +0.000 C 
ATOM     18  O   UNL     1       1.573   2.472  -2.468  0.00  0.00    +0.000 OA
ATOM     19  C   UNL     1      -2.632  -1.193  -4.269  0.00  0.00    +0.000 C 
ATOM     20  C   UNL     1      -3.058  -0.569  -5.548  0.00  0.00    +0.000 C 
ATOM     21  C   UNL     1      -2.472  -2.738  -4.601  0.00  0.00    +0.000 C 
ENDROOT
BRANCH   4  22
ATOM     22  O   UNL     1       1.017   2.141   0.186  0.00  0.00    +0.000 OA
BRANCH  22  23
ATOM     23  C   UNL     1       0.461   3.536   0.003  0.00  0.00    +0.000 C 
ATOM     24  C   UNL     1      -0.669   3.856  -1.039  0.00  0.00    +0.000 C 
ATOM     25  O   UNL     1       0.664   4.434   0.837  0.00  0.00    +0.000 OA
ENDBRANCH  22  23
ENDBRANCH   4  22
BRANCH   6  26
ATOM     26  O   UNL     1       3.032  -0.860  -2.274  0.00  0.00    +0.000 OA
BRANCH  26  27
ATOM     27  C   UNL     1       3.249  -1.877  -3.175  0.00  0.00    +0.000 C 
ATOM     28  O   UNL     1       3.972  -2.884  -3.013  0.00  0.00    +0.000 OA
BRANCH  27  29
ATOM     29  C   UNL     1       2.408  -1.912  -4.373  0.00  0.00    +0.000 A 
ATOM     30  C   UNL     1       1.838  -3.095  -4.927  0.00  0.00    +0.000 A 
ATOM     31  C   UNL     1       1.413  -3.086  -6.252  0.00  0.00    +0.000 A 
ATOM     32  C   UNL     1       1.502  -1.895  -6.971  0.00  0.00    +0.000 A 
ATOM     33  C   UNL     1       1.984  -0.724  -6.373  0.00  0.00    +0.000 A 
ATOM     34  C   UNL     1       2.404  -0.722  -5.059  0.00  0.00    +0.000 A 
ENDBRANCH  27  29
ENDBRANCH  26  27
ENDBRANCH   6  26
BRANCH   7  35
ATOM     35  O   UNL     1       2.526  -4.119  -0.350  0.00  0.00    +0.000 OA
BRANCH  35  36
ATOM     36  C   UNL     1       3.687  -4.805  -0.762  0.00  0.00    +0.000 C 
ATOM     37  C   UNL     1       4.910  -3.964  -0.907  0.00  0.00    +0.000 C 
ATOM     38  O   UNL     1       3.827  -6.032  -0.749  0.00  0.00    +0.000 OA
ENDBRANCH  35  36
ENDBRANCH   7  35
TORSDOF 7
