REMARK  Name = Diacerein
REMARK  8 active torsions:
REMARK  status: ('A' for Active; 'I' for Inactive)
REMARK    1  A    between atoms: C_1  and  C_2
REMARK    2  A    between atoms: C_2  and  O_4
REMARK    3  A    between atoms: O_4  and  C_5
REMARK    4  A    between atoms: C_14  and  O_15
REMARK    5  A    between atoms: O_15  and  C_16
REMARK    6  A    between atoms: C_16  and  C_17
REMARK    7  A    between atoms: C_20  and  C_25
REMARK    8  A    between atoms: C_25  and  O_26
REMARK                            x       y       z     vdW  Elec       q    Type
REMARK                         _______ _______ _______ _____ _____    ______ ____
ROOT
ATOM      1  C   UNL     1       4.691   0.958   0.553  0.00  0.00    +0.000 A 
ATOM      2  C   UNL     1       5.312   1.154   1.787  0.00  0.00    +0.000 A 
ATOM      3  C   UNL     1       6.708   1.081   1.876  0.00  0.00    +0.000 A 
ATOM      4  C   UNL     1       7.477   0.701   0.770  0.00  0.00    +0.000 A 
ATOM      5  C   UNL     1       6.870   0.527  -0.468  0.00  0.00    +0.000 A 
ATOM      6  C   UNL     1       5.509   0.797  -0.593  0.00  0.00    +0.000 A 
ATOM      7  C   UNL     1       5.255   1.321  -1.949  0.00  0.00    +0.000 C 
ATOM      8  O   UNL     1       4.894   2.476  -2.153  0.00  0.00    +0.000 OA
ATOM      9  C   UNL     1       5.669   0.529  -3.105  0.00  0.00    +0.000 A 
ATOM     10  C   UNL     1       4.973   0.482  -4.324  0.00  0.00    +0.000 A 
ATOM     11  C   UNL     1       5.664   0.100  -5.483  0.00  0.00    +0.000 A 
ATOM     12  C   UNL     1       7.041  -0.231  -5.410  0.00  0.00    +0.000 A 
ATOM     13  C   UNL     1       7.682  -0.251  -4.159  0.00  0.00    +0.000 A 
ATOM     14  C   UNL     1       6.985   0.097  -3.003  0.00  0.00    +0.000 A 
ATOM     15  C   UNL     1       7.659   0.158  -1.678  0.00  0.00    +0.000 C 
ATOM     16  O   UNL     1       8.854  -0.127  -1.590  0.00  0.00    +0.000 OA
ENDROOT
BRANCH  12  17
ATOM     17  C   UNL     1       7.779  -0.514  -6.677  0.00  0.00    +0.000 C 
ATOM     18  O   UNL     1       7.215  -0.489  -7.768  0.00  0.00    +0.000 OA
BRANCH  17  19
ATOM     19  O   UNL     1       9.091  -0.795  -6.576  0.00  0.00    +0.000 OA
ATOM     20  H   UNL     1       9.528  -0.801  -5.707  0.00  0.00    +0.000 HD
ENDBRANCH  17  19
ENDBRANCH  12  17
BRANCH   1  21
ATOM     21  O   UNL     1       3.261   0.939   0.585  0.00  0.00    +0.000 OA
BRANCH  21  23
ATOM     22  C   UNL     1       1.080  -0.101   0.187  0.00  0.00    +0.000 C 
ATOM     23  C   UNL     1       2.599  -0.273   0.289  0.00  0.00    +0.000 C 
ATOM     24  O   UNL     1       3.175  -1.310  -0.025  0.00  0.00    +0.000 OA
ENDBRANCH  21  23
ENDBRANCH   1  21
BRANCH  10  25
ATOM     25  O   UNL     1       3.584   0.868  -4.518  0.00  0.00    +0.000 OA
BRANCH  25  26
ATOM     26  C   UNL     1       2.477   1.100  -3.676  0.00  0.00    +0.000 C 
ATOM     27  C   UNL     1       2.713   0.805  -2.271  0.00  0.00    +0.000 C 
ATOM     28  O   UNL     1       1.354   1.439  -4.059  0.00  0.00    +0.000 OA
ENDBRANCH  25  26
ENDBRANCH  10  25
TORSDOF 6
