REMARK  Name = Diamorphine
REMARK  7 active torsions:
REMARK  status: ('A' for Active; 'I' for Inactive)
REMARK    1  A    between atoms: C_5  and  O_6
REMARK    2  A    between atoms: O_6  and  C_7
REMARK    3  A    between atoms: C_7  and  C_8
REMARK    4  A    between atoms: C_13  and  O_14
REMARK    5  A    between atoms: O_14  and  C_15
REMARK    6  A    between atoms: C_15  and  C_16
REMARK    7  A    between atoms: N_25  and  C_26
REMARK                            x       y       z     vdW  Elec       q    Type
REMARK                         _______ _______ _______ _____ _____    ______ ____
ROOT
ATOM      1  C   UNL     1       2.072   0.161   0.061  0.00  0.00    +0.000 C 
ATOM      2  C   UNL     1       2.449  -0.760   1.213  0.00  0.00    +0.000 C 
ATOM      3  C   UNL     1       2.588  -2.090   1.051  0.00  0.00    +0.000 C 
ATOM      4  C   UNL     1       2.280  -2.788  -0.251  0.00  0.00    +0.000 C 
ATOM      5  C   UNL     1       2.478  -1.857  -1.462  0.00  0.00    +0.000 C 
ATOM      6  O   UNL     1       3.680  -2.271  -2.125  0.00  0.00    +0.000 OA
ATOM      7  C   UNL     1       4.685  -1.434  -1.738  0.00  0.00    +0.000 A 
ATOM      8  C   UNL     1       6.052  -1.600  -1.852  0.00  0.00    +0.000 A 
ATOM      9  C   UNL     1       6.872  -0.621  -1.273  0.00  0.00    +0.000 A 
ATOM     10  C   UNL     1       6.301   0.485  -0.593  0.00  0.00    +0.000 A 
ATOM     11  C   UNL     1       4.910   0.643  -0.534  0.00  0.00    +0.000 A 
ATOM     12  C   UNL     1       4.145  -0.312  -1.167  0.00  0.00    +0.000 A 
ATOM     13  C   UNL     1       2.649  -0.371  -1.238  0.00  0.00    +0.000 C 
ATOM     14  C   UNL     1       2.154   0.411  -2.471  0.00  0.00    +0.000 C 
ATOM     15  C   UNL     1       2.457   1.893  -2.327  0.00  0.00    +0.000 C 
ATOM     16  N   UNL     1       2.017   2.371  -1.011  0.00  0.00    +0.000 NA
ATOM     17  C   UNL     1       2.223   3.808  -0.901  0.00  0.00    +0.000 C 
ATOM     18  C   UNL     1       2.604   1.626   0.145  0.00  0.00    +0.000 C 
ATOM     19  C   UNL     1       4.180   1.689   0.266  0.00  0.00    +0.000 C 
ENDROOT
BRANCH   4  20
ATOM     20  O   UNL     1       3.096  -3.991  -0.337  0.00  0.00    +0.000 OA
BRANCH  20  21
ATOM     21  C   UNL     1       2.999  -4.937  -1.304  0.00  0.00    +0.000 C 
ATOM     22  C   UNL     1       2.038  -4.750  -2.462  0.00  0.00    +0.000 C 
ATOM     23  O   UNL     1       3.735  -5.924  -1.270  0.00  0.00    +0.000 OA
ENDBRANCH  20  21
ENDBRANCH   4  20
BRANCH   8  24
ATOM     24  O   UNL     1       6.720  -2.712  -2.492  0.00  0.00    +0.000 OA
BRANCH  24  25
ATOM     25  C   UNL     1       6.336  -3.762  -3.367  0.00  0.00    +0.000 C 
ATOM     26  C   UNL     1       4.920  -3.750  -3.736  0.00  0.00    +0.000 C 
ATOM     27  O   UNL     1       7.111  -4.661  -3.732  0.00  0.00    +0.000 OA
ENDBRANCH  24  25
ENDBRANCH   8  24
TORSDOF 4
