REMARK  Name = Diaminopropanol tetraacetic acid
REMARK  17 active torsions:
REMARK  status: ('A' for Active; 'I' for Inactive)
REMARK    1  A    between atoms: O_1  and  C_2
REMARK    2  A    between atoms: C_2  and  C_3
REMARK    3  A    between atoms: C_2  and  C_13
REMARK    4  A    between atoms: C_3  and  N_4
REMARK    5  A    between atoms: N_4  and  C_5
REMARK    6  A    between atoms: N_4  and  C_9
REMARK    7  A    between atoms: C_5  and  C_6
REMARK    8  A    between atoms: C_6  and  O_7
REMARK    9  A    between atoms: C_9  and  C_10
REMARK   10  A    between atoms: C_10  and  O_11
REMARK   11  A    between atoms: C_13  and  N_14
REMARK   12  A    between atoms: N_14  and  C_15
REMARK   13  A    between atoms: N_14  and  C_19
REMARK   14  A    between atoms: C_15  and  C_16
REMARK   15  A    between atoms: C_16  and  O_17
REMARK   16  A    between atoms: C_19  and  C_20
REMARK   17  A    between atoms: C_20  and  O_21
REMARK                            x       y       z     vdW  Elec       q    Type
REMARK                         _______ _______ _______ _____ _____    ______ ____
ROOT
ATOM      1  C   UNL     1       2.115   0.259  -0.185  0.00  0.00    +0.000 C 
ENDROOT
BRANCH   1   2
ATOM      2  O   UNL     1       0.773   0.739  -0.191  0.00  0.00    +0.000 OA
ATOM      3  H   UNL     1       0.217   0.140   0.337  0.00  0.00    +0.000 HD
ENDBRANCH   1   2
BRANCH   1   4
ATOM      4  C   UNL     1       2.977   1.520  -0.184  0.00  0.00    +0.000 C 
BRANCH   4   5
ATOM      5  N   UNL     1       4.464   1.335  -0.061  0.00  0.00    +0.000 NA
BRANCH   5   6
ATOM      6  C   UNL     1       5.011   0.648  -1.271  0.00  0.00    +0.000 C 
BRANCH   6   7
ATOM      7  C   UNL     1       5.180  -0.867  -1.034  0.00  0.00    +0.000 C 
ATOM      8  O   UNL     1       5.577  -1.625  -1.905  0.00  0.00    +0.000 OA
BRANCH   7   9
ATOM      9  O   UNL     1       4.723  -1.314   0.165  0.00  0.00    +0.000 OA
ATOM     10  H   UNL     1       4.380  -0.573   0.707  0.00  0.00    +0.000 HD
ENDBRANCH   7   9
ENDBRANCH   6   7
ENDBRANCH   5   6
BRANCH   5  11
ATOM     11  C   UNL     1       4.968   2.752  -0.044  0.00  0.00    +0.000 C 
BRANCH  11  12
ATOM     12  C   UNL     1       6.478   2.886   0.025  0.00  0.00    +0.000 C 
ATOM     13  O   UNL     1       7.043   3.974  -0.123  0.00  0.00    +0.000 OA
BRANCH  12  14
ATOM     14  O   UNL     1       7.179   1.757   0.252  0.00  0.00    +0.000 OA
ATOM     15  H   UNL     1       6.614   0.978   0.420  0.00  0.00    +0.000 HD
ENDBRANCH  12  14
ENDBRANCH  11  12
ENDBRANCH   5  11
ENDBRANCH   4   5
ENDBRANCH   1   4
BRANCH   1  16
ATOM     16  C   UNL     1       2.276  -0.709  -1.400  0.00  0.00    +0.000 C 
BRANCH  16  17
ATOM     17  N   UNL     1       1.999  -2.181  -1.155  0.00  0.00    +0.000 NA
BRANCH  17  18
ATOM     18  C   UNL     1       2.632  -2.967  -2.295  0.00  0.00    +0.000 C 
BRANCH  18  19
ATOM     19  C   UNL     1       2.312  -4.463  -2.349  0.00  0.00    +0.000 C 
ATOM     20  O   UNL     1       2.580  -5.164  -3.318  0.00  0.00    +0.000 OA
BRANCH  19  21
ATOM     21  O   UNL     1       1.745  -4.984  -1.240  0.00  0.00    +0.000 OA
ATOM     22  H   UNL     1       1.696  -4.332  -0.518  0.00  0.00    +0.000 HD
ENDBRANCH  19  21
ENDBRANCH  18  19
ENDBRANCH  17  18
BRANCH  17  23
ATOM     23  C   UNL     1       0.523  -2.305  -1.199  0.00  0.00    +0.000 C 
BRANCH  23  24
ATOM     24  C   UNL     1      -0.044  -1.962   0.168  0.00  0.00    +0.000 C 
ATOM     25  O   UNL     1      -1.201  -1.633   0.358  0.00  0.00    +0.000 OA
BRANCH  24  26
ATOM     26  O   UNL     1       0.882  -1.915   1.163  0.00  0.00    +0.000 OA
ATOM     27  H   UNL     1       1.784  -2.081   0.800  0.00  0.00    +0.000 HD
ENDBRANCH  24  26
ENDBRANCH  23  24
ENDBRANCH  17  23
ENDBRANCH  16  17
ENDBRANCH   1  16
TORSDOF 17
