REMARK  Name = Diatrizoate
REMARK  6 active torsions:
REMARK  status: ('A' for Active; 'I' for Inactive)
REMARK    1  A    between atoms: C_1  and  C_2
REMARK    2  A    between atoms: N_4  and  C_5
REMARK    3  A    between atoms: C_8  and  C_9
REMARK    4  A    between atoms: C_9  and  O_10
REMARK    5  A    between atoms: C_14  and  N_15
REMARK    6  A    between atoms: C_16  and  C_17
REMARK                            x       y       z     vdW  Elec       q    Type
REMARK                         _______ _______ _______ _____ _____    ______ ____
ROOT
ATOM      1  C   UNL     1       4.640   0.673   0.792  0.00  0.00    +0.000 A 
ATOM      2  C   UNL     1       5.483   0.935  -0.309  0.00  0.00    +0.000 A 
ATOM      3  I   UNL     1       4.411   1.887  -2.038  0.00  0.00    +0.000 I 
ATOM      4  C   UNL     1       6.904   0.885  -0.209  0.00  0.00    +0.000 A 
ATOM      5  C   UNL     1       7.440   0.603   1.104  0.00  0.00    +0.000 A 
ATOM      6  I   UNL     1       9.636   0.725   1.468  0.00  0.00    +0.000 I 
ATOM      7  C   UNL     1       6.626   0.345   2.296  0.00  0.00    +0.000 A 
ATOM      8  C   UNL     1       5.196   0.443   2.078  0.00  0.00    +0.000 A 
ATOM      9  I   UNL     1       3.256   0.434   3.583  0.00  0.00    +0.000 I 
ENDROOT
BRANCH   1  13
ATOM     10  C   UNL     1       1.042  -0.071  -0.037  0.00  0.00    +0.000 C 
ATOM     11  C   UNL     1       2.541  -0.169  -0.157  0.00  0.00    +0.000 C 
ATOM     12  O   UNL     1       3.080  -0.990  -0.891  0.00  0.00    +0.000 OA
ATOM     13  N   UNL     1       3.220   0.706   0.673  0.00  0.00    +0.000 N 
ATOM     14  H   UNL     1       2.728   0.870   1.548  0.00  0.00    +0.000 HD
ENDBRANCH   1  13
BRANCH   7  15
ATOM     15  N   UNL     1       7.408   0.006   3.486  0.00  0.00    +0.000 N 
ATOM     16  C   UNL     1       7.125  -0.432   4.761  0.00  0.00    +0.000 C 
ATOM     17  C   UNL     1       5.716  -0.643   5.068  0.00  0.00    +0.000 C 
ATOM     18  O   UNL     1       7.994  -0.646   5.602  0.00  0.00    +0.000 OA
ATOM     19  H   UNL     1       8.424   0.017   3.375  0.00  0.00    +0.000 HD
ENDBRANCH   7  15
BRANCH   4  20
ATOM     20  C   UNL     1       7.704   1.108  -1.485  0.00  0.00    +0.000 C 
ATOM     21  O   UNL     1       7.188   1.284  -2.591  0.00  0.00    +0.000 OA
BRANCH  20  22
ATOM     22  O   UNL     1       9.040   1.087  -1.470  0.00  0.00    +0.000 OA
ATOM     23  H   UNL     1       9.483   0.908  -0.626  0.00  0.00    +0.000 HD
ENDBRANCH  20  22
ENDBRANCH   4  20
TORSDOF 4
