REMARK  Name = Diazoxide
REMARK  1 active torsions:
REMARK  status: ('A' for Active; 'I' for Inactive)
REMARK    1  A    between atoms: C_1  and  C_2
REMARK                            x       y       z     vdW  Elec       q    Type
REMARK                         _______ _______ _______ _____ _____    ______ ____
ROOT
ATOM      1  C   UNL     1       1.099  -0.043   0.004  0.00  0.00    +0.000 C 
ATOM      2  C   UNL     1       2.613  -0.091   0.004  0.00  0.00    +0.000 C 
ATOM      3  N   UNL     1       3.130  -1.270   0.002  0.00  0.00    +0.000 NA
ATOM      4  S   UNL     1       4.728  -1.472   0.027  0.00  0.00    +0.000 S 
ATOM      5  O   UNL     1       5.105  -2.044   1.304  0.00  0.00    +0.000 OA
ATOM      6  O   UNL     1       5.139  -2.099  -1.216  0.00  0.00    +0.000 OA
ATOM      7  C   UNL     1       5.472   0.118   0.004  0.00  0.00    +0.000 A 
ATOM      8  C   UNL     1       4.652   1.241   0.004  0.00  0.00    +0.000 A 
ATOM      9  N   UNL     1       3.263   1.120   0.010  0.00  0.00    +0.000 N 
ATOM     10  C   UNL     1       5.278   2.492   0.002  0.00  0.00    +0.000 A 
ATOM     11  C   UNL     1       6.678   2.589   0.002  0.00  0.00    +0.000 A 
ATOM     12  C   UNL     1       7.466   1.438   0.001  0.00  0.00    +0.000 A 
ATOM     13 CL   UNL     1       9.179   1.557   0.004  0.00  0.00    +0.000 Cl
ATOM     14  C   UNL     1       6.867   0.190   0.002  0.00  0.00    +0.000 A 
ATOM     15  H   UNL     1       2.718   1.976   0.007  0.00  0.00    +0.000 HD
ENDROOT
TORSDOF 0
