REMARK  Name = Diazolidinylurea
REMARK  9 active torsions:
REMARK  status: ('A' for Active; 'I' for Inactive)
REMARK    1  A    between atoms: O_1  and  C_2
REMARK    2  A    between atoms: C_2  and  N_3
REMARK    3  A    between atoms: N_6  and  C_7
REMARK    4  A    between atoms: N_6  and  C_9
REMARK    5  A    between atoms: C_7  and  O_8
REMARK    6  A    between atoms: N_10  and  C_11
REMARK    7  A    between atoms: C_11  and  O_12
REMARK    8  A    between atoms: N_15  and  C_16
REMARK    9  A    between atoms: C_16  and  O_17
REMARK                            x       y       z     vdW  Elec       q    Type
REMARK                         _______ _______ _______ _____ _____    ______ ____
ROOT
ATOM      1  C   UNL     1       6.124   0.813  -2.997  0.00  0.00    +0.000 C 
ATOM      2  N   UNL     1       6.927  -0.309  -2.563  0.00  0.00    +0.000 N 
ATOM      3  C   UNL     1       7.847   0.075  -1.609  0.00  0.00    +0.000 C 
ATOM      4  O   UNL     1       8.617  -0.694  -1.040  0.00  0.00    +0.000 OA
ATOM      5  N   UNL     1       7.793   1.421  -1.429  0.00  0.00    +0.000 N 
ATOM      6  C   UNL     1       6.851   1.968  -2.263  0.00  0.00    +0.000 C 
ATOM      7  O   UNL     1       6.604   3.160  -2.400  0.00  0.00    +0.000 OA
ENDROOT
BRANCH   1  11
ATOM      8  N   UNL     1       2.922   0.309  -1.235  0.00  0.00    +0.000 N 
ATOM      9  C   UNL     1       4.263   0.449  -1.451  0.00  0.00    +0.000 C 
ATOM     10  O   UNL     1       5.062   0.260  -0.536  0.00  0.00    +0.000 OA
ATOM     11  N   UNL     1       4.673   0.729  -2.745  0.00  0.00    +0.000 N 
ATOM     12  H   UNL     1       2.292   0.868  -1.798  0.00  0.00    +0.000 HD
BRANCH   8  13
ATOM     13  C   UNL     1       2.425  -0.011   0.065  0.00  0.00    +0.000 C 
BRANCH  13  14
ATOM     14  O   UNL     1       1.018   0.009  -0.033  0.00  0.00    +0.000 OA
ATOM     15  H   UNL     1       0.684  -0.223   0.852  0.00  0.00    +0.000 HD
ENDBRANCH  13  14
ENDBRANCH   8  13
BRANCH  11  16
ATOM     16  C   UNL     1       3.831   1.098  -3.874  0.00  0.00    +0.000 C 
BRANCH  16  17
ATOM     17  O   UNL     1       2.456   0.929  -3.606  0.00  0.00    +0.000 OA
ATOM     18  H   UNL     1       2.346  -0.023  -3.425  0.00  0.00    +0.000 HD
ENDBRANCH  16  17
ENDBRANCH  11  16
ENDBRANCH   1  11
BRANCH   2  19
ATOM     19  C   UNL     1       6.649  -1.650  -3.002  0.00  0.00    +0.000 C 
BRANCH  19  20
ATOM     20  O   UNL     1       7.470  -2.613  -2.381  0.00  0.00    +0.000 OA
ATOM     21  H   UNL     1       8.350  -2.210  -2.260  0.00  0.00    +0.000 HD
ENDBRANCH  19  20
ENDBRANCH   2  19
BRANCH   5  22
ATOM     22  C   UNL     1       8.562   2.202  -0.494  0.00  0.00    +0.000 C 
BRANCH  22  23
ATOM     23  O   UNL     1       9.412   1.418   0.322  0.00  0.00    +0.000 OA
ATOM     24  H   UNL     1       8.901   0.629   0.584  0.00  0.00    +0.000 HD
ENDBRANCH  22  23
ENDBRANCH   5  22
TORSDOF 9
