REMARK  Name = Diazepam
REMARK  2 active torsions:
REMARK  status: ('A' for Active; 'I' for Inactive)
REMARK    1  A    between atoms: C_1  and  N_2
REMARK    2  A    between atoms: C_10  and  C_15
REMARK                            x       y       z     vdW  Elec       q    Type
REMARK                         _______ _______ _______ _____ _____    ______ ____
ROOT
ATOM      1  C   UNL     1       0.940  -0.106  -0.042  0.00  0.00    +0.000 C 
ATOM      2  N   UNL     1       2.397  -0.095  -0.010  0.00  0.00    +0.000 N 
ATOM      3  C   UNL     1       3.077   1.147   0.131  0.00  0.00    +0.000 A 
ATOM      4  C   UNL     1       4.244   1.316   0.899  0.00  0.00    +0.000 A 
ATOM      5  C   UNL     1       4.824   2.592   1.023  0.00  0.00    +0.000 A 
ATOM      6  C   UNL     1       4.261   3.688   0.377  0.00  0.00    +0.000 A 
ATOM      7 CL   UNL     1       4.980   5.240   0.537  0.00  0.00    +0.000 Cl
ATOM      8  C   UNL     1       3.123   3.534  -0.401  0.00  0.00    +0.000 A 
ATOM      9  C   UNL     1       2.538   2.274  -0.518  0.00  0.00    +0.000 A 
ATOM     10  C   UNL     1       4.885   0.201   1.652  0.00  0.00    +0.000 C 
ATOM     11  N   UNL     1       5.042  -1.000   1.211  0.00  0.00    +0.000 NA
ATOM     12  C   UNL     1       4.550  -1.343  -0.122  0.00  0.00    +0.000 C 
ATOM     13  C   UNL     1       3.031  -1.329  -0.141  0.00  0.00    +0.000 C 
ATOM     14  O   UNL     1       2.390  -2.369  -0.348  0.00  0.00    +0.000 OA
ENDROOT
BRANCH  10  15
ATOM     15  C   UNL     1       5.404   0.482   3.022  0.00  0.00    +0.000 A 
ATOM     16  C   UNL     1       6.744   0.211   3.315  0.00  0.00    +0.000 A 
ATOM     17  C   UNL     1       7.203   0.339   4.626  0.00  0.00    +0.000 A 
ATOM     18  C   UNL     1       6.350   0.820   5.619  0.00  0.00    +0.000 A 
ATOM     19  C   UNL     1       5.041   1.187   5.302  0.00  0.00    +0.000 A 
ATOM     20  C   UNL     1       4.549   0.975   4.013  0.00  0.00    +0.000 A 
ENDBRANCH  10  15
TORSDOF 1
