REMARK  Name = Dibenzepin
REMARK  6 active torsions:
REMARK  status: ('A' for Active; 'I' for Inactive)
REMARK    1  A    between atoms: C_1  and  N_2
REMARK    2  A    between atoms: N_2  and  C_3
REMARK    3  A    between atoms: N_2  and  C_4
REMARK    4  A    between atoms: C_4  and  C_5
REMARK    5  A    between atoms: C_5  and  N_6
REMARK    6  A    between atoms: N_13  and  C_14
REMARK                            x       y       z     vdW  Elec       q    Type
REMARK                         _______ _______ _______ _____ _____    ______ ____
ROOT
ATOM      1  N   UNL     1       4.908   1.472   2.352  0.00  0.00    +0.000 N 
ATOM      2  C   UNL     1       6.281   1.422   2.619  0.00  0.00    +0.000 A 
ATOM      3  C   UNL     1       6.767   0.280   3.260  0.00  0.00    +0.000 A 
ATOM      4  C   UNL     1       8.082   0.253   3.700  0.00  0.00    +0.000 A 
ATOM      5  C   UNL     1       8.906   1.355   3.474  0.00  0.00    +0.000 A 
ATOM      6  C   UNL     1       8.421   2.477   2.792  0.00  0.00    +0.000 A 
ATOM      7  C   UNL     1       7.092   2.529   2.360  0.00  0.00    +0.000 A 
ATOM      8  N   UNL     1       6.571   3.695   1.782  0.00  0.00    +0.000 N 
ATOM      9  C   UNL     1       7.077   4.062   0.455  0.00  0.00    +0.000 C 
ATOM     10  C   UNL     1       5.484   4.411   2.316  0.00  0.00    +0.000 A 
ATOM     11  C   UNL     1       5.552   5.819   2.313  0.00  0.00    +0.000 A 
ATOM     12  C   UNL     1       4.588   6.611   2.939  0.00  0.00    +0.000 A 
ATOM     13  C   UNL     1       3.505   6.016   3.566  0.00  0.00    +0.000 A 
ATOM     14  C   UNL     1       3.404   4.630   3.583  0.00  0.00    +0.000 A 
ATOM     15  C   UNL     1       4.392   3.817   2.988  0.00  0.00    +0.000 A 
ATOM     16  C   UNL     1       4.116   2.351   3.057  0.00  0.00    +0.000 C 
ATOM     17  O   UNL     1       3.128   1.943   3.680  0.00  0.00    +0.000 OA
ENDROOT
BRANCH   1  18
ATOM     18  C   UNL     1       4.421   0.743   1.190  0.00  0.00    +0.000 C 
BRANCH  18  19
ATOM     19  C   UNL     1       2.891   0.716   1.057  0.00  0.00    +0.000 C 
BRANCH  19  21
ATOM     20  C   UNL     1       0.939  -0.015  -0.103  0.00  0.00    +0.000 C 
ATOM     21  N   UNL     1       2.405  -0.010  -0.132  0.00  0.00    +0.000 NA
ATOM     22  C   UNL     1       2.871   0.618  -1.369  0.00  0.00    +0.000 C 
ENDBRANCH  19  21
ENDBRANCH  18  19
ENDBRANCH   1  18
TORSDOF 3
