REMARK  Name = Dibekacin
REMARK  15 active torsions:
REMARK  status: ('A' for Active; 'I' for Inactive)
REMARK    1  A    between atoms: N_1  and  C_2
REMARK    2  A    between atoms: C_2  and  C_3
REMARK    3  A    between atoms: C_6  and  N_7
REMARK    4  A    between atoms: C_8  and  O_9
REMARK    5  A    between atoms: O_9  and  C_10
REMARK    6  A    between atoms: C_11  and  N_12
REMARK    7  A    between atoms: C_14  and  N_15
REMARK    8  A    between atoms: C_16  and  O_17
REMARK    9  A    between atoms: O_17  and  C_18
REMARK   10  A    between atoms: C_20  and  C_21
REMARK   11  A    between atoms: C_21  and  O_22
REMARK   12  A    between atoms: C_23  and  O_24
REMARK   13  A    between atoms: C_25  and  N_26
REMARK   14  A    between atoms: C_27  and  O_28
REMARK   15  A    between atoms: C_29  and  O_30
REMARK                            x       y       z     vdW  Elec       q    Type
REMARK                         _______ _______ _______ _____ _____    ______ ____
ROOT
ATOM      1  C   UNL     1      -3.986  -3.763  -2.499  0.00  0.00    +0.000 C 
ATOM      2  C   UNL     1      -4.088  -3.916  -4.101  0.00  0.00    +0.000 C 
ATOM      3  C   UNL     1      -2.833  -3.412  -4.954  0.00  0.00    +0.000 C 
ATOM      4  C   UNL     1      -2.060  -2.191  -4.426  0.00  0.00    +0.000 C 
ATOM      5  C   UNL     1      -1.918  -1.978  -2.865  0.00  0.00    +0.000 C 
ATOM      6  C   UNL     1      -3.272  -2.421  -2.080  0.00  0.00    +0.000 C 
ENDROOT
BRANCH   2   7
ATOM      7  N   UNL     1      -5.242  -3.270  -4.707  0.00  0.00    +0.000 NA
ATOM      8  H   UNL     1      -5.115  -2.281  -4.836  0.00  0.00    +0.000 HD
ATOM      9  H   UNL     1      -6.078  -3.437  -4.150  0.00  0.00    +0.000 HD
ENDBRANCH   2   7
BRANCH   4  10
ATOM     10  N   UNL     1      -2.688  -1.069  -5.134  0.00  0.00    +0.000 NA
ATOM     11  H   UNL     1      -3.678  -0.995  -4.933  0.00  0.00    +0.000 HD
ATOM     12  H   UNL     1      -2.667  -1.291  -6.135  0.00  0.00    +0.000 HD
ENDBRANCH   4  10
BRANCH   6  13
ATOM     13  O   UNL     1      -4.277  -1.391  -2.303  0.00  0.00    +0.000 OA
ATOM     14  H   UNL     1      -4.457  -1.333  -3.254  0.00  0.00    +0.000 HD
ENDBRANCH   6  13
BRANCH   1  15
ATOM     15  O   UNL     1      -3.634  -4.973  -1.733  0.00  0.00    +0.000 OA
BRANCH  15  20
ATOM     16  C   UNL     1      -0.331  -6.012  -1.034  0.00  0.00    +0.000 C 
ATOM     17  C   UNL     1       0.034  -6.510  -2.650  0.00  0.00    +0.000 C 
ATOM     18  C   UNL     1      -0.617  -5.670  -3.748  0.00  0.00    +0.000 C 
ATOM     19  C   UNL     1      -2.045  -5.776  -3.378  0.00  0.00    +0.000 C 
ATOM     20  C   UNL     1      -2.321  -5.443  -1.949  0.00  0.00    +0.000 C 
ATOM     21  O   UNL     1      -1.732  -6.377  -1.040  0.00  0.00    +0.000 OA
BRANCH  19  22
ATOM     22  N   UNL     1      -2.606  -6.909  -4.099  0.00  0.00    +0.000 NA
ATOM     23  H   UNL     1      -2.111  -7.725  -3.789  0.00  0.00    +0.000 HD
ATOM     24  H   UNL     1      -2.364  -6.777  -5.082  0.00  0.00    +0.000 HD
ENDBRANCH  19  22
BRANCH  16  25
ATOM     25  C   UNL     1      -0.521  -4.419  -0.074  0.00  0.00    +0.000 C 
BRANCH  25  26
ATOM     26  N   UNL     1       0.141  -3.006   0.187  0.00  0.00    +0.000 NA
ATOM     27  H   UNL     1      -0.563  -2.293  -0.089  0.00  0.00    +0.000 HD
ATOM     28  H   UNL     1       0.823  -2.591  -0.491  0.00  0.00    +0.000 HD
ENDBRANCH  25  26
ENDBRANCH  16  25
ENDBRANCH  15  20
ENDBRANCH   1  15
BRANCH   5  29
ATOM     29  O   UNL     1      -0.590  -2.199  -2.147  0.00  0.00    +0.000 OA
BRANCH  29  30
ATOM     30  C   UNL     1       0.701  -2.671  -2.765  0.00  0.00    +0.000 C 
ATOM     31  O   UNL     1       1.899  -1.890  -2.796  0.00  0.00    +0.000 OA
ATOM     32  C   UNL     1       3.002  -2.644  -3.513  0.00  0.00    +0.000 C 
ATOM     33  C   UNL     1       3.463  -3.947  -2.777  0.00  0.00    +0.000 C 
ATOM     34  C   UNL     1       2.261  -4.863  -2.813  0.00  0.00    +0.000 C 
ATOM     35  C   UNL     1       1.208  -4.019  -2.106  0.00  0.00    +0.000 C 
BRANCH  34  36
ATOM     36  N   UNL     1       2.015  -5.275  -4.204  0.00  0.00    +0.000 NA
ATOM     37  H   UNL     1       1.282  -4.669  -4.559  0.00  0.00    +0.000 HD
ATOM     38  H   UNL     1       1.637  -6.205  -4.373  0.00  0.00    +0.000 HD
ENDBRANCH  34  36
BRANCH  33  39
ATOM     39  O   UNL     1       3.966  -3.629  -1.461  0.00  0.00    +0.000 OA
ATOM     40  H   UNL     1       3.190  -3.554  -0.859  0.00  0.00    +0.000 HD
ENDBRANCH  33  39
BRANCH  35  41
ATOM     41  O   UNL     1       1.840  -4.153  -0.800  0.00  0.00    +0.000 OA
ATOM     42  H   UNL     1       1.404  -3.857   0.031  0.00  0.00    +0.000 HD
ENDBRANCH  35  41
BRANCH  32  43
ATOM     43  C   UNL     1       2.631  -2.848  -5.034  0.00  0.00    +0.000 C 
BRANCH  43  44
ATOM     44  O   UNL     1       3.352  -3.878  -5.713  0.00  0.00    +0.000 OA
ATOM     45  H   UNL     1       3.031  -4.744  -5.351  0.00  0.00    +0.000 HD
ENDBRANCH  43  44
ENDBRANCH  32  43
ENDBRANCH  29  30
ENDBRANCH   5  29
TORSDOF 15
