REMARK  Name = Dichloralphenazone
REMARK  9 active torsions:
REMARK  status: ('A' for Active; 'I' for Inactive)
REMARK    1  A    between atoms: O_1  and  C_2
REMARK    2  A    between atoms: C_2  and  O_3
REMARK    3  A    between atoms: C_2  and  C_4
REMARK    4  A    between atoms: O_8  and  C_9
REMARK    5  A    between atoms: C_9  and  O_10
REMARK    6  A    between atoms: C_9  and  C_11
REMARK    7  A    between atoms: C_15  and  N_16
REMARK    8  A    between atoms: N_17  and  C_23
REMARK    9  A    between atoms: C_21  and  C_22
REMARK                            x       y       z     vdW  Elec       q    Type
REMARK                         _______ _______ _______ _____ _____    ______ ____
ROOT
ATOM      1  C   UNL     1       1.736   0.793  -0.247  0.00  0.00    +0.000 C 
ENDROOT
BRANCH   1   2
ATOM      2  C   UNL     1       2.645  -0.112  -2.121  0.00  0.00    +0.000 C 
ATOM      3 CL   UNL     1       2.566  -2.298  -2.945  0.00  0.00    +0.000 Cl
ATOM      4 CL   UNL     1       1.894  -0.211  -3.750  0.00  0.00    +0.000 Cl
ATOM      5 CL   UNL     1       4.831  -0.750  -2.332  0.00  0.00    +0.000 Cl
ENDBRANCH   1   2
BRANCH   1   6
ATOM      6  O   UNL     1       0.592   1.499  -0.833  0.00  0.00    +0.000 OA
ATOM      7  H   UNL     1      -0.144   0.948  -1.093  0.00  0.00    +0.000 HD
ENDBRANCH   1   6
BRANCH   1   8
ATOM      8  O   UNL     1       2.000   0.390   1.794  0.00  0.00    +0.000 OA
ATOM      9  H   UNL     1       3.044   0.046   2.015  0.00  0.00    +0.000 HD
ENDBRANCH   1   8
TORSDOF 3
REMARK  Name = Dichloralphenazone
REMARK  9 active torsions:
REMARK  status: ('A' for Active; 'I' for Inactive)
REMARK    1  A    between atoms: O_1  and  C_2
REMARK    2  A    between atoms: C_2  and  O_3
REMARK    3  A    between atoms: C_2  and  C_4
REMARK    4  A    between atoms: O_8  and  C_9
REMARK    5  A    between atoms: C_9  and  O_10
REMARK    6  A    between atoms: C_9  and  C_11
REMARK    7  A    between atoms: C_15  and  N_16
REMARK    8  A    between atoms: N_17  and  C_23
REMARK    9  A    between atoms: C_21  and  C_22
REMARK                            x       y       z     vdW  Elec       q    Type
REMARK                         _______ _______ _______ _____ _____    ______ ____
ROOT
ATOM      1  C   UNL     1       2.263  -1.012  -0.593  0.00  0.00    +0.000 C 
ENDROOT
BRANCH   1   2
ATOM      2  C   UNL     1       3.367   0.937  -0.621  0.00  0.00    +0.000 C 
ATOM      3 CL   UNL     1       2.307   2.177  -2.328  0.00  0.00    +0.000 Cl
ATOM      4 CL   UNL     1       3.159   1.841   1.835  0.00  0.00    +0.000 Cl
ATOM      5 CL   UNL     1       5.163   1.783  -1.709  0.00  0.00    +0.000 Cl
ENDBRANCH   1   2
BRANCH   1   6
ATOM      6  O   UNL     1       0.578  -1.752  -0.316  0.00  0.00    +0.000 OA
ATOM      7  H   UNL     1      -0.267  -1.210   0.161  0.00  0.00    +0.000 HD
ENDBRANCH   1   6
BRANCH   1   8
ATOM      8  O   UNL     1       3.211  -1.916  -0.971  0.00  0.00    +0.000 OA
ATOM      9  H   UNL     1       4.059  -1.486  -1.098  0.00  0.00    +0.000 HD
ENDBRANCH   1   8
TORSDOF 3
REMARK  Name = Dichloralphenazone
REMARK  9 active torsions:
REMARK  status: ('A' for Active; 'I' for Inactive)
REMARK    1  A    between atoms: O_1  and  C_2
REMARK    2  A    between atoms: C_2  and  O_3
REMARK    3  A    between atoms: C_2  and  C_4
REMARK    4  A    between atoms: O_8  and  C_9
REMARK    5  A    between atoms: C_9  and  O_10
REMARK    6  A    between atoms: C_9  and  C_11
REMARK    7  A    between atoms: C_15  and  N_16
REMARK    8  A    between atoms: N_17  and  C_23
REMARK    9  A    between atoms: C_21  and  C_22
REMARK                            x       y       z     vdW  Elec       q    Type
REMARK                         _______ _______ _______ _____ _____    ______ ____
ROOT
ATOM      1  C   UNL     1       0.988  -0.205   0.886  0.00  0.00    +0.000 C 
ATOM      2  N   UNL     1       3.131  -0.183   0.805  0.00  0.00    +0.000 N 
ATOM      3  N   UNL     1       4.448   1.381   0.598  0.00  0.00    +0.000 N 
ATOM      4  C   UNL     1       5.599   0.692   0.697  0.00  0.00    +0.000 A 
ATOM      5  O   UNL     1       6.653   1.268   0.641  0.00  0.00    +0.000 OA
ATOM      6  C   UNL     1       5.274  -0.909   0.733  0.00  0.00    +0.000 A 
ATOM      7  C   UNL     1       4.009  -1.394   1.009  0.00  0.00    +0.000 A 
ATOM      8  C   UNL     1       3.070  -2.968   0.761  0.00  0.00    +0.000 C 
ENDROOT
BRANCH   3   9
ATOM      9  C   UNL     1       3.508   3.075   0.234  0.00  0.00    +0.000 A 
ATOM     10  C   UNL     1       1.951   3.502   0.999  0.00  0.00    +0.000 A 
ATOM     11  C   UNL     1       1.103   4.515   0.798  0.00  0.00    +0.000 A 
ATOM     12  C   UNL     1       1.602   5.265  -0.198  0.00  0.00    +0.000 A 
ATOM     13  C   UNL     1       2.595   4.850  -1.100  0.00  0.00    +0.000 A 
ATOM     14  C   UNL     1       3.533   3.844  -0.867  0.00  0.00    +0.000 A 
ENDBRANCH   3   9
TORSDOF 1
