REMARK  Name = Dichlorobenzyl alcohol
REMARK  2 active torsions:
REMARK  status: ('A' for Active; 'I' for Inactive)
REMARK    1  A    between atoms: O_1  and  C_2
REMARK    2  A    between atoms: C_2  and  C_3
REMARK                            x       y       z     vdW  Elec       q    Type
REMARK                         _______ _______ _______ _____ _____    ______ ____
ROOT
ATOM      1  C   UNL     1       2.908   1.180   0.732  0.00  0.00    +0.000 A 
ATOM      2  C   UNL     1       2.490   2.437   0.263  0.00  0.00    +0.000 A 
ATOM      3 CL   UNL     1       1.569   2.610  -1.192  0.00  0.00    +0.000 Cl
ATOM      4  C   UNL     1       2.815   3.604   0.957  0.00  0.00    +0.000 A 
ATOM      5  C   UNL     1       3.585   3.526   2.113  0.00  0.00    +0.000 A 
ATOM      6 CL   UNL     1       3.965   4.962   2.981  0.00  0.00    +0.000 Cl
ATOM      7  C   UNL     1       4.048   2.297   2.572  0.00  0.00    +0.000 A 
ATOM      8  C   UNL     1       3.714   1.127   1.885  0.00  0.00    +0.000 A 
ENDROOT
BRANCH   1   9
ATOM      9  C   UNL     1       2.488  -0.099   0.060  0.00  0.00    +0.000 C 
BRANCH   9  10
ATOM     10  O   UNL     1       1.075  -0.214   0.151  0.00  0.00    +0.000 OA
ATOM     11  H   UNL     1       0.801  -0.904  -0.474  0.00  0.00    +0.000 HD
ENDBRANCH   9  10
ENDBRANCH   1   9
TORSDOF 2
