REMARK  Name = Dichloroacetic acid
REMARK  2 active torsions:
REMARK  status: ('A' for Active; 'I' for Inactive)
REMARK    1  A    between atoms: O_1  and  C_2
REMARK    2  A    between atoms: C_2  and  C_4
REMARK                            x       y       z     vdW  Elec       q    Type
REMARK                         _______ _______ _______ _____ _____    ______ ____
ROOT
ATOM      1  C   UNL     1       2.507  -0.011  -0.026  0.00  0.00    +0.000 C 
ATOM      2  O   UNL     1       3.050  -1.069   0.275  0.00  0.00    +0.000 OA
ENDROOT
BRANCH   1   3
ATOM      3  C   UNL     1       3.229   1.269  -0.435  0.00  0.00    +0.000 C 
ATOM      4 CL   UNL     1       2.721   2.599   0.628  0.00  0.00    +0.000 Cl
ATOM      5 CL   UNL     1       4.990   1.068  -0.376  0.00  0.00    +0.000 Cl
ENDBRANCH   1   3
BRANCH   1   6
ATOM      6  O   UNL     1       1.147   0.065  -0.067  0.00  0.00    +0.000 OA
ATOM      7  H   UNL     1       0.768   0.941  -0.277  0.00  0.00    +0.000 HD
ENDBRANCH   1   6
TORSDOF 2
