REMARK  Name = Diclofenac
REMARK  5 active torsions:
REMARK  status: ('A' for Active; 'I' for Inactive)
REMARK    1  A    between atoms: O_1  and  C_2
REMARK    2  A    between atoms: C_2  and  C_4
REMARK    3  A    between atoms: C_4  and  C_5
REMARK    4  A    between atoms: C_10  and  N_11
REMARK    5  A    between atoms: N_11  and  C_12
REMARK                            x       y       z     vdW  Elec       q    Type
REMARK                         _______ _______ _______ _____ _____    ______ ____
ROOT
ATOM      1  C   UNL     1       4.725  -0.718  -1.202  0.00  0.00    +0.000 A 
ATOM      2  C   UNL     1       5.612  -1.788  -0.902  0.00  0.00    +0.000 A 
ATOM      3  C   UNL     1       6.878  -1.547  -0.402  0.00  0.00    +0.000 A 
ATOM      4  C   UNL     1       7.310  -0.234  -0.299  0.00  0.00    +0.000 A 
ATOM      5  C   UNL     1       6.435   0.841  -0.582  0.00  0.00    +0.000 A 
ATOM      6  C   UNL     1       5.095   0.639  -0.997  0.00  0.00    +0.000 A 
ENDROOT
BRANCH   6   7
ATOM      7  N   UNL     1       4.162   1.754  -0.870  0.00  0.00    +0.000 N 
ATOM      8  H   UNL     1       4.654   2.642  -0.961  0.00  0.00    +0.000 HD
BRANCH   7   9
ATOM      9  C   UNL     1       2.762   1.889  -1.187  0.00  0.00    +0.000 A 
ATOM     10  C   UNL     1       2.338   2.174  -2.505  0.00  0.00    +0.000 A 
ATOM     11 CL   UNL     1       3.455   2.561  -3.768  0.00  0.00    +0.000 Cl
ATOM     12  C   UNL     1       0.984   2.092  -2.883  0.00  0.00    +0.000 A 
ATOM     13  C   UNL     1       0.040   1.583  -2.004  0.00  0.00    +0.000 A 
ATOM     14  C   UNL     1       0.392   1.442  -0.676  0.00  0.00    +0.000 A 
ATOM     15  C   UNL     1       1.702   1.734  -0.240  0.00  0.00    +0.000 A 
ATOM     16 CL   UNL     1       1.836   1.774   1.497  0.00  0.00    +0.000 Cl
ENDBRANCH   7   9
ENDBRANCH   6   7
BRANCH   1  17
ATOM     17  C   UNL     1       3.291  -1.142  -1.323  0.00  0.00    +0.000 C 
BRANCH  17  18
ATOM     18  C   UNL     1       2.684  -0.903   0.032  0.00  0.00    +0.000 C 
ATOM     19  O   UNL     1       3.323  -0.557   1.030  0.00  0.00    +0.000 OA
BRANCH  18  20
ATOM     20  O   UNL     1       1.359  -1.137   0.084  0.00  0.00    +0.000 OA
ATOM     21  H   UNL     1       0.946  -1.137  -0.798  0.00  0.00    +0.000 HD
ENDBRANCH  18  20
ENDBRANCH  17  18
ENDBRANCH   1  17
TORSDOF 5
