REMARK  Name = Diclofenamide
REMARK  4 active torsions:
REMARK  status: ('A' for Active; 'I' for Inactive)
REMARK    1  A    between atoms: N_1  and  S_2
REMARK    2  A    between atoms: S_2  and  C_5
REMARK    3  A    between atoms: C_7  and  S_13
REMARK    4  A    between atoms: S_13  and  N_14
REMARK                            x       y       z     vdW  Elec       q    Type
REMARK                         _______ _______ _______ _____ _____    ______ ____
ROOT
ATOM      1  C   UNL     1       3.350  -1.224   1.277  0.00  0.00    +0.000 A 
ATOM      2  C   UNL     1       3.914  -0.821   2.495  0.00  0.00    +0.000 A 
ATOM      3  C   UNL     1       4.188  -1.782   3.504  0.00  0.00    +0.000 A 
ATOM      4  C   UNL     1       3.916  -3.137   3.278  0.00  0.00    +0.000 A 
ATOM      5 CL   UNL     1       4.123  -4.367   4.478  0.00  0.00    +0.000 Cl
ATOM      6  C   UNL     1       3.411  -3.519   2.018  0.00  0.00    +0.000 A 
ATOM      7 CL   UNL     1       3.072  -5.172   1.620  0.00  0.00    +0.000 Cl
ATOM      8  C   UNL     1       3.132  -2.574   1.024  0.00  0.00    +0.000 A 
ENDROOT
BRANCH   1   9
ATOM      9  S   UNL     1       2.888  -0.041   0.031  0.00  0.00    +0.000 S 
ATOM     10  O   UNL     1       3.288  -0.560  -1.256  0.00  0.00    +0.000 OA
ATOM     11  O   UNL     1       3.260   1.275   0.485  0.00  0.00    +0.000 OA
BRANCH   9  12
ATOM     12  N   UNL     1       1.205  -0.092   0.085  0.00  0.00    +0.000 NA
ATOM     13  H   UNL     1       0.825   0.448  -0.699  0.00  0.00    +0.000 HD
ATOM     14  H   UNL     1       0.830   0.250   0.970  0.00  0.00    +0.000 HD
ENDBRANCH   9  12
ENDBRANCH   1   9
BRANCH   3  15
ATOM     15  S   UNL     1       4.823  -1.160   5.050  0.00  0.00    +0.000 S 
ATOM     16  O   UNL     1       3.967  -0.078   5.456  0.00  0.00    +0.000 OA
ATOM     17  O   UNL     1       5.201  -2.226   5.951  0.00  0.00    +0.000 OA
BRANCH  15  18
ATOM     18  N   UNL     1       6.255  -0.506   4.522  0.00  0.00    +0.000 NA
ATOM     19  H   UNL     1       6.279   0.472   4.257  0.00  0.00    +0.000 HD
ATOM     20  H   UNL     1       7.069  -1.111   4.483  0.00  0.00    +0.000 HD
ENDBRANCH  15  18
ENDBRANCH   3  15
TORSDOF 4
