REMARK  Name = Dicoumarol
REMARK  4 active torsions:
REMARK  status: ('A' for Active; 'I' for Inactive)
REMARK    1  A    between atoms: O_1  and  C_2
REMARK    2  A    between atoms: C_3  and  C_4
REMARK    3  A    between atoms: C_4  and  C_5
REMARK    4  A    between atoms: C_6  and  O_7
REMARK                            x       y       z     vdW  Elec       q    Type
REMARK                         _______ _______ _______ _____ _____    ______ ____
ROOT
ATOM      1  C   UNL     1       3.071  -1.645   0.170  0.00  0.00    +0.000 C 
ENDROOT
BRANCH   1   3
ATOM      2  C   UNL     1       0.596  -1.377   0.011  0.00  0.00    +0.000 A 
ATOM      3  C   UNL     1       1.817  -0.804   0.037  0.00  0.00    +0.000 A 
ATOM      4  C   UNL     1       1.921   0.683  -0.099  0.00  0.00    +0.000 A 
ATOM      5  O   UNL     1       2.973   1.265  -0.358  0.00  0.00    +0.000 OA
ATOM      6  O   UNL     1       0.783   1.433   0.056  0.00  0.00    +0.000 OA
ATOM      7  C   UNL     1      -0.467   0.826   0.035  0.00  0.00    +0.000 A 
ATOM      8  C   UNL     1      -0.612  -0.554  -0.027  0.00  0.00    +0.000 A 
ATOM      9  C   UNL     1      -1.912  -1.065  -0.077  0.00  0.00    +0.000 A 
ATOM     10  C   UNL     1      -3.013  -0.197  -0.051  0.00  0.00    +0.000 A 
ATOM     11  C   UNL     1      -2.829   1.184   0.029  0.00  0.00    +0.000 A 
ATOM     12  C   UNL     1      -1.545   1.701   0.065  0.00  0.00    +0.000 A 
BRANCH   2  13
ATOM     13  O   UNL     1       0.370  -2.740   0.044  0.00  0.00    +0.000 OA
ATOM     14  H   UNL     1       1.202  -3.236   0.097  0.00  0.00    +0.000 HD
ENDBRANCH   2  13
ENDBRANCH   1   3
BRANCH   1  15
ATOM     15  C   UNL     1       4.389  -0.926   0.135  0.00  0.00    +0.000 A 
ATOM     16  C   UNL     1       5.297  -1.029  -0.851  0.00  0.00    +0.000 A 
ATOM     17  C   UNL     1       6.462  -0.150  -0.859  0.00  0.00    +0.000 A 
ATOM     18  C   UNL     1       6.573   0.824   0.128  0.00  0.00    +0.000 A 
ATOM     19  O   UNL     1       5.657   0.906   1.185  0.00  0.00    +0.000 OA
ATOM     20  C   UNL     1       4.609   0.013   1.278  0.00  0.00    +0.000 A 
ATOM     21  O   UNL     1       3.845   0.023   2.242  0.00  0.00    +0.000 OA
ATOM     22  C   UNL     1       7.615   1.746   0.144  0.00  0.00    +0.000 A 
ATOM     23  C   UNL     1       8.599   1.673  -0.837  0.00  0.00    +0.000 A 
ATOM     24  C   UNL     1       8.527   0.686  -1.821  0.00  0.00    +0.000 A 
ATOM     25  C   UNL     1       7.458  -0.214  -1.839  0.00  0.00    +0.000 A 
BRANCH  16  26
ATOM     26  O   UNL     1       5.201  -1.872  -1.939  0.00  0.00    +0.000 OA
ATOM     27  H   UNL     1       4.400  -2.412  -1.903  0.00  0.00    +0.000 HD
ENDBRANCH  16  26
ENDBRANCH   1  15
TORSDOF 4
