REMARK  Name = Dicyclomine
REMARK  10 active torsions:
REMARK  status: ('A' for Active; 'I' for Inactive)
REMARK    1  A    between atoms: C_1  and  C_2
REMARK    2  A    between atoms: C_2  and  N_3
REMARK    3  A    between atoms: N_3  and  C_4
REMARK    4  A    between atoms: N_3  and  C_6
REMARK    5  A    between atoms: C_4  and  C_5
REMARK    6  A    between atoms: C_6  and  C_7
REMARK    7  A    between atoms: C_7  and  O_8
REMARK    8  A    between atoms: O_8  and  C_9
REMARK    9  A    between atoms: C_9  and  C_11
REMARK   10  A    between atoms: C_11  and  C_17
REMARK                            x       y       z     vdW  Elec       q    Type
REMARK                         _______ _______ _______ _____ _____    ______ ____
ROOT
ATOM      1  C   UNL     1       8.724  -2.970  -2.590  0.00  0.00    +0.000 C 
ATOM      2  C   UNL     1       9.223  -3.815  -3.805  0.00  0.00    +0.000 C 
ATOM      3  C   UNL     1      10.709  -3.701  -4.141  0.00  0.00    +0.000 C 
ATOM      4  C   UNL     1      11.221  -2.263  -4.165  0.00  0.00    +0.000 C 
ATOM      5  C   UNL     1      10.691  -1.307  -3.097  0.00  0.00    +0.000 C 
ATOM      6  C   UNL     1       9.200  -1.503  -2.817  0.00  0.00    +0.000 C 
ENDROOT
BRANCH   1   7
ATOM      7  C   UNL     1       9.197  -3.600  -1.212  0.00  0.00    +0.000 C 
ATOM      8  C   UNL     1      10.719  -3.778  -1.106  0.00  0.00    +0.000 C 
ATOM      9  C   UNL     1      11.361  -4.040   0.226  0.00  0.00    +0.000 C 
ATOM     10  C   UNL     1      10.823  -3.082   1.260  0.00  0.00    +0.000 C 
ATOM     11  C   UNL     1       9.309  -3.184   1.307  0.00  0.00    +0.000 C 
ATOM     12  C   UNL     1       8.677  -2.786  -0.014  0.00  0.00    +0.000 C 
ENDBRANCH   1   7
BRANCH   1  13
ATOM     13  C   UNL     1       7.164  -3.008  -2.636  0.00  0.00    +0.000 C 
ATOM     14  O   UNL     1       6.513  -3.831  -3.292  0.00  0.00    +0.000 OA
BRANCH  13  15
ATOM     15  O   UNL     1       6.579  -2.054  -1.847  0.00  0.00    +0.000 OA
BRANCH  15  16
ATOM     16  C   UNL     1       5.136  -2.105  -1.827  0.00  0.00    +0.000 C 
BRANCH  16  17
ATOM     17  C   UNL     1       4.533  -1.018  -0.901  0.00  0.00    +0.000 C 
BRANCH  17  18
ATOM     18  N   UNL     1       3.033  -0.962  -0.890  0.00  0.00    +0.000 NA
BRANCH  18  20
ATOM     19  C   UNL     1       1.089   0.126   0.363  0.00  0.00    +0.000 C 
ATOM     20  C   UNL     1       2.593   0.059   0.091  0.00  0.00    +0.000 C 
ENDBRANCH  18  20
BRANCH  18  21
ATOM     21  C   UNL     1       2.536  -0.709  -2.259  0.00  0.00    +0.000 C 
ATOM     22  C   UNL     1       1.036  -0.824  -2.486  0.00  0.00    +0.000 C 
ENDBRANCH  18  21
ENDBRANCH  17  18
ENDBRANCH  16  17
ENDBRANCH  15  16
ENDBRANCH  13  15
ENDBRANCH   1  13
TORSDOF 8
