REMARK  Name = Didanosine
REMARK  3 active torsions:
REMARK  status: ('A' for Active; 'I' for Inactive)
REMARK    1  A    between atoms: O_1  and  C_2
REMARK    2  A    between atoms: C_2  and  C_3
REMARK    3  A    between atoms: C_6  and  N_8
REMARK                            x       y       z     vdW  Elec       q    Type
REMARK                         _______ _______ _______ _____ _____    ______ ____
ROOT
ATOM      1  N   UNL     1       0.362   3.130  -1.576  0.00  0.00    +0.000 N 
ATOM      2  C   UNL     1      -0.198   4.391  -1.523  0.00  0.00    +0.000 A 
ATOM      3  N   UNL     1      -1.426   4.379  -1.039  0.00  0.00    +0.000 NA
ATOM      4  C   UNL     1      -1.708   3.048  -0.828  0.00  0.00    +0.000 A 
ATOM      5  C   UNL     1      -0.643   2.286  -1.228  0.00  0.00    +0.000 A 
ATOM      6  N   UNL     1      -0.674   0.949  -1.184  0.00  0.00    +0.000 N 
ATOM      7  C   UNL     1      -1.754   0.391  -0.542  0.00  0.00    +0.000 A 
ATOM      8  N   UNL     1      -2.810   1.004  -0.106  0.00  0.00    +0.000 NA
ATOM      9  C   UNL     1      -2.903   2.390  -0.276  0.00  0.00    +0.000 A 
ATOM     10  O   UNL     1      -3.910   3.019   0.042  0.00  0.00    +0.000 OA
ATOM     11  H   UNL     1       0.207   0.424  -1.161  0.00  0.00    +0.000 HD
ENDROOT
BRANCH   1  15
ATOM     12  C   UNL     1       2.942   1.213  -0.763  0.00  0.00    +0.000 C 
ATOM     13  C   UNL     1       3.024   2.511   0.021  0.00  0.00    +0.000 C 
ATOM     14  C   UNL     1       2.755   3.557  -1.030  0.00  0.00    +0.000 C 
ATOM     15  C   UNL     1       1.751   2.866  -1.946  0.00  0.00    +0.000 C 
ATOM     16  O   UNL     1       2.046   1.449  -1.871  0.00  0.00    +0.000 OA
BRANCH  12  17
ATOM     17  C   UNL     1       2.503   0.019   0.103  0.00  0.00    +0.000 C 
BRANCH  17  18
ATOM     18  O   UNL     1       1.092  -0.045   0.221  0.00  0.00    +0.000 OA
ATOM     19  H   UNL     1       0.854  -0.791   0.797  0.00  0.00    +0.000 HD
ENDBRANCH  17  18
ENDBRANCH  12  17
ENDBRANCH   1  15
TORSDOF 3
