REMARK  Name = Didecyldimethylammonium
REMARK  22 active torsions:
REMARK  status: ('A' for Active; 'I' for Inactive)
REMARK    1  A    between atoms: C_1  and  C_2
REMARK    2  A    between atoms: C_2  and  C_3
REMARK    3  A    between atoms: C_3  and  C_4
REMARK    4  A    between atoms: C_4  and  C_5
REMARK    5  A    between atoms: C_5  and  C_6
REMARK    6  A    between atoms: C_6  and  C_7
REMARK    7  A    between atoms: C_7  and  C_8
REMARK    8  A    between atoms: C_8  and  C_9
REMARK    9  A    between atoms: C_9  and  C_10
REMARK   10  A    between atoms: C_10  and  N_11
REMARK   11  A    between atoms: N_11  and  C_12
REMARK   12  A    between atoms: N_11  and  C_13
REMARK   13  A    between atoms: N_11  and  C_14
REMARK   14  A    between atoms: C_14  and  C_15
REMARK   15  A    between atoms: C_15  and  C_16
REMARK   16  A    between atoms: C_16  and  C_17
REMARK   17  A    between atoms: C_17  and  C_18
REMARK   18  A    between atoms: C_18  and  C_19
REMARK   19  A    between atoms: C_19  and  C_20
REMARK   20  A    between atoms: C_20  and  C_21
REMARK   21  A    between atoms: C_21  and  C_22
REMARK   22  A    between atoms: C_22  and  C_23
REMARK                            x       y       z     vdW  Elec       q    Type
REMARK                         _______ _______ _______ _____ _____    ______ ____
ROOT
ATOM      1  N   UNL     1      11.144   2.415  -6.783  0.00  0.00    +0.000 N 
ATOM      2  C   UNL     1      10.642   1.458  -7.867  0.00  0.00    +0.000 C 
ATOM      3  C   UNL     1      10.642   3.838  -7.040  0.00  0.00    +0.000 C 
ENDROOT
BRANCH   1   4
ATOM      4  C   UNL     1      10.671   1.934  -5.397  0.00  0.00    +0.000 C 
BRANCH   4   5
ATOM      5  C   UNL     1       9.156   1.906  -5.317  0.00  0.00    +0.000 C 
BRANCH   5   6
ATOM      6  C   UNL     1       8.680   1.435  -3.962  0.00  0.00    +0.000 C 
BRANCH   6   7
ATOM      7  C   UNL     1       7.160   1.444  -3.986  0.00  0.00    +0.000 C 
BRANCH   7   8
ATOM      8  C   UNL     1       6.632   0.979  -2.649  0.00  0.00    +0.000 C 
BRANCH   8   9
ATOM      9  C   UNL     1       5.115   0.985  -2.666  0.00  0.00    +0.000 C 
BRANCH   9  10
ATOM     10  C   UNL     1       4.597   0.517  -1.317  0.00  0.00    +0.000 C 
BRANCH  10  11
ATOM     11  C   UNL     1       3.077   0.515  -1.312  0.00  0.00    +0.000 C 
BRANCH  11  13
ATOM     12  C   UNL     1       1.036   0.043   0.046  0.00  0.00    +0.000 C 
ATOM     13  C   UNL     1       2.552   0.046   0.038  0.00  0.00    +0.000 C 
ENDBRANCH  11  13
ENDBRANCH  10  11
ENDBRANCH   9  10
ENDBRANCH   8   9
ENDBRANCH   7   8
ENDBRANCH   6   7
ENDBRANCH   5   6
ENDBRANCH   4   5
ENDBRANCH   1   4
BRANCH   1  14
ATOM     14  C   UNL     1      12.685   2.401  -6.742  0.00  0.00    +0.000 C 
BRANCH  14  15
ATOM     15  C   UNL     1      13.270   2.860  -8.065  0.00  0.00    +0.000 C 
BRANCH  15  16
ATOM     16  C   UNL     1      14.781   2.851  -8.038  0.00  0.00    +0.000 C 
BRANCH  16  17
ATOM     17  C   UNL     1      15.263   3.324  -9.400  0.00  0.00    +0.000 C 
BRANCH  17  18
ATOM     18  C   UNL     1      16.775   3.332  -9.424  0.00  0.00    +0.000 C 
BRANCH  18  19
ATOM     19  C   UNL     1      17.263   3.803 -10.781  0.00  0.00    +0.000 C 
BRANCH  19  20
ATOM     20  C   UNL     1      18.781   3.807 -10.793  0.00  0.00    +0.000 C 
BRANCH  20  21
ATOM     21  C   UNL     1      19.293   4.277 -12.144  0.00  0.00    +0.000 C 
BRANCH  21  22
ATOM     22  C   UNL     1      20.815   4.283 -12.162  0.00  0.00    +0.000 C 
ATOM     23  C   UNL     1      21.329   4.751 -13.509  0.00  0.00    +0.000 C 
ENDBRANCH  21  22
ENDBRANCH  20  21
ENDBRANCH  19  20
ENDBRANCH  18  19
ENDBRANCH  17  18
ENDBRANCH  16  17
ENDBRANCH  15  16
ENDBRANCH  14  15
ENDBRANCH   1  14
TORSDOF 18
