REMARK  Name = Dienogest
REMARK  4 active torsions:
REMARK  status: ('A' for Active; 'I' for Inactive)
REMARK    1  A    between atoms: C_5  and  O_6
REMARK    2  A    between atoms: C_5  and  C_7
REMARK    3  A    between atoms: C_7  and  C_8
REMARK    4  A    between atoms: C_10  and  C_11
REMARK                            x       y       z     vdW  Elec       q    Type
REMARK                         _______ _______ _______ _____ _____    ______ ____
ROOT
ATOM      1  C   UNL     1       1.707  -0.094   0.002  0.00  0.00    +0.000 C 
ATOM      2  C   UNL     1       2.126   0.193  -1.340  0.00  0.00    +0.000 C 
ATOM      3  C   UNL     1       3.144  -0.330  -0.389  0.00  0.00    +0.000 C 
ATOM      4  C   UNL     1       2.368  -1.286   1.344  0.00  0.00    +0.000 C 
ATOM      5  C   UNL     1       2.578  -1.754   0.038  0.00  0.00    +0.000 C 
ATOM      6  C   UNL     1       1.947  -2.859  -0.677  0.00  0.00    +0.000 C 
ATOM      7  C   UNL     1       4.388  -1.851   0.446  0.00  0.00    +0.000 C 
ATOM      8  C   UNL     1       4.758  -0.606   1.551  0.00  0.00    +0.000 C 
ATOM      9  C   UNL     1       4.137   0.943   1.437  0.00  0.00    +0.000 C 
ATOM     10  C   UNL     1       5.023   1.937   1.153  0.00  0.00    +0.000 C 
ATOM     11  C   UNL     1       6.450   1.495   1.166  0.00  0.00    +0.000 C 
ATOM     12  C   UNL     1       7.467   2.557   0.948  0.00  0.00    +0.000 C 
ATOM     13  C   UNL     1       7.210   3.973   0.674  0.00  0.00    +0.000 C 
ATOM     14  O   UNL     1       8.199   4.699   0.579  0.00  0.00    +0.000 OA
ATOM     15  C   UNL     1       5.710   4.286   0.538  0.00  0.00    +0.000 C 
ATOM     16  C   UNL     1       4.732   3.324   0.729  0.00  0.00    +0.000 C 
ATOM     17  C   UNL     1       3.228   3.589   0.532  0.00  0.00    +0.000 C 
ATOM     18  C   UNL     1       2.129   2.501   0.704  0.00  0.00    +0.000 C 
ATOM     19  C   UNL     1       2.517   1.113   1.192  0.00  0.00    +0.000 C 
ENDROOT
BRANCH   4  20
ATOM     20  O   UNL     1       2.796  -2.540   1.980  0.00  0.00    +0.000 OA
ATOM     21  H   UNL     1       3.682  -2.623   2.353  0.00  0.00    +0.000 HD
ENDBRANCH   4  20
BRANCH   4  22
ATOM     22  C   UNL     1       0.623  -1.701   1.981  0.00  0.00    +0.000 C 
BRANCH  22  23
ATOM     23  C   UNL     1       0.190  -2.521   3.185  0.00  0.00    +0.000 C 
ATOM     24  N   UNL     1      -0.169  -3.202   4.185  0.00  0.00    +0.000 NA
ENDBRANCH  22  23
ENDBRANCH   4  22
TORSDOF 3
