REMARK  Name = Dienestrol
REMARK  7 active torsions:
REMARK  status: ('A' for Active; 'I' for Inactive)
REMARK    1  A    between atoms: C_2  and  C_3
REMARK    2  A    between atoms: C_4  and  C_5
REMARK    3  A    between atoms: C_4  and  C_16
REMARK    4  A    between atoms: C_5  and  C_9
REMARK    5  A    between atoms: C_6  and  C_8
REMARK    6  A    between atoms: C_12  and  O_13
REMARK    7  A    between atoms: C_19  and  O_20
REMARK                            x       y       z     vdW  Elec       q    Type
REMARK                         _______ _______ _______ _____ _____    ______ ____
ROOT
ATOM      1  C   UNL     1       2.252  -0.089   0.059  0.00  0.00    +0.000 C 
ATOM      2  C   UNL     1       2.862   1.067   0.800  0.00  0.00    +0.000 C 
ATOM      3  C   UNL     1       2.858  -1.032  -0.703  0.00  0.00    +0.000 C 
ENDROOT
BRANCH   3   4
ATOM      4  C   UNL     1       4.364  -1.008  -0.734  0.00  0.00    +0.000 A 
ATOM      5  C   UNL     1       5.113  -0.964   0.458  0.00  0.00    +0.000 A 
ATOM      6  C   UNL     1       6.509  -0.916   0.444  0.00  0.00    +0.000 A 
ATOM      7  C   UNL     1       7.175  -1.025  -0.767  0.00  0.00    +0.000 A 
ATOM      8  C   UNL     1       6.468  -1.116  -1.958  0.00  0.00    +0.000 A 
ATOM      9  C   UNL     1       5.071  -1.057  -1.943  0.00  0.00    +0.000 A 
BRANCH   7  10
ATOM     10  O   UNL     1       8.535  -1.058  -0.831  0.00  0.00    +0.000 OA
ATOM     11  H   UNL     1       8.889  -0.992   0.071  0.00  0.00    +0.000 HD
ENDBRANCH   7  10
ENDBRANCH   3   4
BRANCH   3  12
ATOM     12  C   UNL     1       2.031  -2.047  -1.478  0.00  0.00    +0.000 C 
ATOM     13  C   UNL     1       2.627  -3.021  -2.207  0.00  0.00    +0.000 C 
ATOM     14  C   UNL     1       2.038  -4.063  -3.120  0.00  0.00    +0.000 C 
BRANCH  12  15
ATOM     15  C   UNL     1       0.528  -2.034  -1.487  0.00  0.00    +0.000 A 
ATOM     16  C   UNL     1      -0.203  -0.870  -1.773  0.00  0.00    +0.000 A 
ATOM     17  C   UNL     1      -1.602  -0.874  -1.752  0.00  0.00    +0.000 A 
ATOM     18  C   UNL     1      -2.278  -2.070  -1.541  0.00  0.00    +0.000 A 
ATOM     19  C   UNL     1      -1.583  -3.242  -1.291  0.00  0.00    +0.000 A 
ATOM     20  C   UNL     1      -0.192  -3.210  -1.208  0.00  0.00    +0.000 A 
BRANCH  18  21
ATOM     21  O   UNL     1      -3.638  -2.142  -1.570  0.00  0.00    +0.000 OA
ATOM     22  H   UNL     1      -3.992  -1.254  -1.738  0.00  0.00    +0.000 HD
ENDBRANCH  18  21
ENDBRANCH  12  15
ENDBRANCH   3  12
TORSDOF 5
