REMARK  Name = Diethylamino hydroxybenzoyl hexyl benzoate
REMARK  16 active torsions:
REMARK  status: ('A' for Active; 'I' for Inactive)
REMARK    1  A    between atoms: C_1  and  C_2
REMARK    2  A    between atoms: C_2  and  C_3
REMARK    3  A    between atoms: C_3  and  C_4
REMARK    4  A    between atoms: C_4  and  C_5
REMARK    5  A    between atoms: C_5  and  C_6
REMARK    6  A    between atoms: C_6  and  O_7
REMARK    7  A    between atoms: O_7  and  C_8
REMARK    8  A    between atoms: C_8  and  C_10
REMARK    9  A    between atoms: C_15  and  C_16
REMARK   10  A    between atoms: C_16  and  C_18
REMARK   11  A    between atoms: C_21  and  N_25
REMARK   12  A    between atoms: C_23  and  O_24
REMARK   13  A    between atoms: N_25  and  C_26
REMARK   14  A    between atoms: N_25  and  C_28
REMARK   15  A    between atoms: C_26  and  C_27
REMARK   16  A    between atoms: C_28  and  C_29
REMARK                            x       y       z     vdW  Elec       q    Type
REMARK                         _______ _______ _______ _____ _____    ______ ____
ROOT
ATOM      1  C   UNL     1       8.915  -2.306  -5.440  0.00  0.00    +0.000 A 
ATOM      2  C   UNL     1       9.991  -3.207  -5.507  0.00  0.00    +0.000 A 
ATOM      3  C   UNL     1      10.533  -3.603  -6.737  0.00  0.00    +0.000 A 
ATOM      4  C   UNL     1       9.978  -3.154  -7.927  0.00  0.00    +0.000 A 
ATOM      5  C   UNL     1       8.937  -2.239  -7.883  0.00  0.00    +0.000 A 
ATOM      6  C   UNL     1       8.424  -1.779  -6.648  0.00  0.00    +0.000 A 
ENDROOT
BRANCH   1   7
ATOM      7  C   UNL     1       8.513  -1.902  -4.050  0.00  0.00    +0.000 C 
ATOM      8  O   UNL     1       9.324  -1.489  -3.251  0.00  0.00    +0.000 OA
BRANCH   7   9
ATOM      9  O   UNL     1       7.172  -2.063  -3.812  0.00  0.00    +0.000 OA
BRANCH   9  10
ATOM     10  C   UNL     1       6.702  -1.547  -2.533  0.00  0.00    +0.000 C 
BRANCH  10  11
ATOM     11  C   UNL     1       5.160  -1.596  -2.447  0.00  0.00    +0.000 C 
BRANCH  11  12
ATOM     12  C   UNL     1       4.613  -1.026  -1.125  0.00  0.00    +0.000 C 
BRANCH  12  13
ATOM     13  C   UNL     1       3.074  -1.040  -1.005  0.00  0.00    +0.000 C 
BRANCH  13  15
ATOM     14  C   UNL     1       0.989  -0.129   0.058  0.00  0.00    +0.000 C 
ATOM     15  C   UNL     1       2.497  -0.305   0.217  0.00  0.00    +0.000 C 
ENDBRANCH  13  15
ENDBRANCH  12  13
ENDBRANCH  11  12
ENDBRANCH  10  11
ENDBRANCH   9  10
ENDBRANCH   7   9
ENDBRANCH   1   7
BRANCH   6  16
ATOM     16  C   UNL     1       7.403  -0.727  -6.796  0.00  0.00    +0.000 C 
ATOM     17  O   UNL     1       6.849  -0.544  -7.882  0.00  0.00    +0.000 OA
BRANCH  16  18
ATOM     18  C   UNL     1       6.933   0.085  -5.692  0.00  0.00    +0.000 A 
ATOM     19  C   UNL     1       5.587   0.011  -5.500  0.00  0.00    +0.000 A 
ATOM     20  C   UNL     1       5.027   0.841  -4.550  0.00  0.00    +0.000 A 
ATOM     21  C   UNL     1       5.727   1.512  -3.526  0.00  0.00    +0.000 A 
ATOM     22  C   UNL     1       7.120   1.499  -3.717  0.00  0.00    +0.000 A 
ATOM     23  C   UNL     1       7.708   0.842  -4.820  0.00  0.00    +0.000 A 
BRANCH  23  24
ATOM     24  O   UNL     1       9.066   0.823  -4.966  0.00  0.00    +0.000 OA
ATOM     25  H   UNL     1       9.464   0.873  -4.077  0.00  0.00    +0.000 HD
ENDBRANCH  23  24
BRANCH  21  26
ATOM     26  N   UNL     1       5.114   2.055  -2.383  0.00  0.00    +0.000 N 
BRANCH  26  27
ATOM     27  C   UNL     1       3.658   1.977  -2.095  0.00  0.00    +0.000 C 
ATOM     28  C   UNL     1       2.692   1.344  -3.069  0.00  0.00    +0.000 C 
ENDBRANCH  26  27
BRANCH  26  29
ATOM     29  C   UNL     1       5.973   2.406  -1.183  0.00  0.00    +0.000 C 
ATOM     30  C   UNL     1       5.218   2.825   0.096  0.00  0.00    +0.000 C 
ENDBRANCH  26  29
ENDBRANCH  21  26
ENDBRANCH  16  18
ENDBRANCH   6  16
TORSDOF 13
