REMARK  Name = Diethylstilbestrol
REMARK  8 active torsions:
REMARK  status: ('A' for Active; 'I' for Inactive)
REMARK    1  A    between atoms: C_1  and  C_2
REMARK    2  A    between atoms: C_2  and  C_3
REMARK    3  A    between atoms: C_3  and  C_14
REMARK    4  A    between atoms: C_4  and  C_5
REMARK    5  A    between atoms: C_4  and  C_7
REMARK    6  A    between atoms: C_5  and  C_6
REMARK    7  A    between atoms: C_10  and  O_11
REMARK    8  A    between atoms: C_17  and  O_18
REMARK                            x       y       z     vdW  Elec       q    Type
REMARK                         _______ _______ _______ _____ _____    ______ ____
ROOT
ATOM      1  C   UNL     1       2.988   0.461   1.258  0.00  0.00    +0.000 C 
ATOM      2  C   UNL     1       2.167   0.832   2.308  0.00  0.00    +0.000 C 
ENDROOT
BRANCH   2   3
ATOM      3  C   UNL     1       0.650   0.732   2.254  0.00  0.00    +0.000 A 
ATOM      4  C   UNL     1       0.010  -0.476   1.936  0.00  0.00    +0.000 A 
ATOM      5  C   UNL     1      -1.342  -0.501   1.537  0.00  0.00    +0.000 A 
ATOM      6  C   UNL     1      -2.122   0.637   1.688  0.00  0.00    +0.000 A 
ATOM      7  C   UNL     1      -1.563   1.791   2.209  0.00  0.00    +0.000 A 
ATOM      8  C   UNL     1      -0.182   1.851   2.457  0.00  0.00    +0.000 A 
BRANCH   6   9
ATOM      9  O   UNL     1      -3.434   0.667   1.320  0.00  0.00    +0.000 OA
ATOM     10  H   UNL     1      -3.693  -0.210   0.994  0.00  0.00    +0.000 HD
ENDBRANCH   6   9
ENDBRANCH   2   3
BRANCH   1  11
ATOM     11  C   UNL     1       4.504   0.416   1.370  0.00  0.00    +0.000 A 
ATOM     12  C   UNL     1       5.355   1.158   0.517  0.00  0.00    +0.000 A 
ATOM     13  C   UNL     1       6.732   1.279   0.784  0.00  0.00    +0.000 A 
ATOM     14  C   UNL     1       7.260   0.726   1.935  0.00  0.00    +0.000 A 
ATOM     15  C   UNL     1       6.461  -0.077   2.743  0.00  0.00    +0.000 A 
ATOM     16  C   UNL     1       5.125  -0.321   2.383  0.00  0.00    +0.000 A 
BRANCH  14  17
ATOM     17  O   UNL     1       8.542   0.942   2.339  0.00  0.00    +0.000 OA
ATOM     18  H   UNL     1       9.029   1.393   1.627  0.00  0.00    +0.000 HD
ENDBRANCH  14  17
ENDBRANCH   1  11
BRANCH   1  20
ATOM     19  C   UNL     1       1.133   0.145  -0.643  0.00  0.00    +0.000 C 
ATOM     20  C   UNL     1       2.579   0.085  -0.183  0.00  0.00    +0.000 C 
ENDBRANCH   1  20
BRANCH   2  21
ATOM     21  C   UNL     1       2.572   1.452   3.667  0.00  0.00    +0.000 C 
ATOM     22  C   UNL     1       4.017   1.783   3.994  0.00  0.00    +0.000 C 
ENDBRANCH   2  21
TORSDOF 6
