REMARK  Name = Diethyltoluamide
REMARK  6 active torsions:
REMARK  status: ('A' for Active; 'I' for Inactive)
REMARK    1  A    between atoms: C_1  and  C_2
REMARK    2  A    between atoms: C_2  and  N_3
REMARK    3  A    between atoms: N_3  and  C_4
REMARK    4  A    between atoms: C_4  and  C_5
REMARK    5  A    between atoms: C_6  and  C_8
REMARK    6  A    between atoms: C_10  and  C_11
REMARK                            x       y       z     vdW  Elec       q    Type
REMARK                         _______ _______ _______ _____ _____    ______ ____
ROOT
ATOM      1  N   UNL     1       2.899  -0.913   1.092  0.00  0.00    +0.000 N 
ATOM      2  C   UNL     1       4.303  -1.179   1.236  0.00  0.00    +0.000 C 
ATOM      3  O   UNL     1       4.744  -2.309   1.383  0.00  0.00    +0.000 OA
ENDROOT
BRANCH   2   4
ATOM      4  C   UNL     1       5.260  -0.014   1.353  0.00  0.00    +0.000 A 
ATOM      5  C   UNL     1       6.647  -0.226   1.479  0.00  0.00    +0.000 A 
ATOM      6  C   UNL     1       7.527   0.863   1.666  0.00  0.00    +0.000 A 
ATOM      7  C   UNL     1       9.003   0.670   1.858  0.00  0.00    +0.000 C 
ATOM      8  C   UNL     1       7.020   2.167   1.684  0.00  0.00    +0.000 A 
ATOM      9  C   UNL     1       5.657   2.383   1.575  0.00  0.00    +0.000 A 
ATOM     10  C   UNL     1       4.796   1.296   1.485  0.00  0.00    +0.000 A 
ENDBRANCH   2   4
BRANCH   1  12
ATOM     11  C   UNL     1       0.973   0.221  -0.247  0.00  0.00    +0.000 C 
ATOM     12  C   UNL     1       2.447  -0.065  -0.044  0.00  0.00    +0.000 C 
ENDBRANCH   1  12
BRANCH   1  13
ATOM     13  C   UNL     1       2.042  -1.909   1.780  0.00  0.00    +0.000 C 
ATOM     14  C   UNL     1       0.530  -1.784   1.700  0.00  0.00    +0.000 C 
ENDBRANCH   1  13
TORSDOF 3
