REMARK  Name = Diethylcarbamazine
REMARK  5 active torsions:
REMARK  status: ('A' for Active; 'I' for Inactive)
REMARK    1  A    between atoms: C_1  and  C_2
REMARK    2  A    between atoms: C_2  and  N_3
REMARK    3  A    between atoms: N_3  and  C_4
REMARK    4  A    between atoms: C_4  and  C_5
REMARK    5  A    between atoms: N_11  and  C_12
REMARK                            x       y       z     vdW  Elec       q    Type
REMARK                         _______ _______ _______ _____ _____    ______ ____
ROOT
ATOM      1  N   UNL     1       3.068  -1.093   0.964  0.00  0.00    +0.000 N 
ATOM      2  C   UNL     1       4.443  -1.450   0.991  0.00  0.00    +0.000 C 
ATOM      3  O   UNL     1       4.836  -2.594   0.832  0.00  0.00    +0.000 OA
ATOM      4  N   UNL     1       5.320  -0.408   1.351  0.00  0.00    +0.000 N 
ATOM      5  C   UNL     1       6.751  -0.755   1.338  0.00  0.00    +0.000 C 
ATOM      6  C   UNL     1       7.675   0.452   1.620  0.00  0.00    +0.000 C 
ATOM      7  N   UNL     1       7.320   1.236   2.825  0.00  0.00    +0.000 NA
ATOM      8  C   UNL     1       7.687   0.515   4.044  0.00  0.00    +0.000 C 
ATOM      9  C   UNL     1       5.874   1.547   2.808  0.00  0.00    +0.000 C 
ATOM     10  C   UNL     1       4.956   0.338   2.554  0.00  0.00    +0.000 C 
ENDROOT
BRANCH   1  12
ATOM     11  C   UNL     1       1.195   0.308  -0.180  0.00  0.00    +0.000 C 
ATOM     12  C   UNL     1       2.670   0.005   0.050  0.00  0.00    +0.000 C 
ENDBRANCH   1  12
BRANCH   1  13
ATOM     13  C   UNL     1       2.174  -2.162   1.451  0.00  0.00    +0.000 C 
ATOM     14  C   UNL     1       0.665  -2.012   1.376  0.00  0.00    +0.000 C 
ENDBRANCH   1  13
TORSDOF 2
