REMARK  Name = Diethylpropion
REMARK  8 active torsions:
REMARK  status: ('A' for Active; 'I' for Inactive)
REMARK    1  A    between atoms: C_1  and  C_2
REMARK    2  A    between atoms: C_2  and  N_3
REMARK    3  A    between atoms: N_3  and  C_4
REMARK    4  A    between atoms: N_3  and  C_6
REMARK    5  A    between atoms: C_4  and  C_5
REMARK    6  A    between atoms: C_6  and  C_7
REMARK    7  A    between atoms: C_6  and  C_8
REMARK    8  A    between atoms: C_8  and  C_10
REMARK                            x       y       z     vdW  Elec       q    Type
REMARK                         _______ _______ _______ _____ _____    ______ ____
ROOT
ATOM      1  C   UNL     1       4.954   1.948   2.020  0.00  0.00    +0.000 C 
ATOM      2  O   UNL     1       4.274   2.686   2.724  0.00  0.00    +0.000 OA
ENDROOT
BRANCH   1   3
ATOM      3  C   UNL     1       6.429   2.065   2.228  0.00  0.00    +0.000 A 
ATOM      4  C   UNL     1       6.937   2.164   3.529  0.00  0.00    +0.000 A 
ATOM      5  C   UNL     1       8.282   2.504   3.725  0.00  0.00    +0.000 A 
ATOM      6  C   UNL     1       9.141   2.645   2.634  0.00  0.00    +0.000 A 
ATOM      7  C   UNL     1       8.647   2.522   1.346  0.00  0.00    +0.000 A 
ATOM      8  C   UNL     1       7.291   2.293   1.156  0.00  0.00    +0.000 A 
ENDBRANCH   1   3
BRANCH   1   9
ATOM      9  C   UNL     1       4.389   0.894   0.991  0.00  0.00    +0.000 C 
ATOM     10  C   UNL     1       4.865   1.235  -0.431  0.00  0.00    +0.000 C 
BRANCH   9  11
ATOM     11  N   UNL     1       2.871   0.818   1.030  0.00  0.00    +0.000 NA
BRANCH  11  13
ATOM     12  C   UNL     1       0.882  -0.148  -0.272  0.00  0.00    +0.000 C 
ATOM     13  C   UNL     1       2.377  -0.123  -0.006  0.00  0.00    +0.000 C 
ENDBRANCH  11  13
BRANCH  11  14
ATOM     14  C   UNL     1       2.408   0.436   2.388  0.00  0.00    +0.000 C 
ATOM     15  C   UNL     1       0.909   0.558   2.634  0.00  0.00    +0.000 C 
ENDBRANCH  11  14
ENDBRANCH   9  11
ENDBRANCH   1   9
TORSDOF 5
