REMARK  Name = Difenoxin
REMARK  9 active torsions:
REMARK  status: ('A' for Active; 'I' for Inactive)
REMARK    1  A    between atoms: O_1  and  C_2
REMARK    2  A    between atoms: C_2  and  C_4
REMARK    3  A    between atoms: C_4  and  C_27
REMARK    4  A    between atoms: N_7  and  C_8
REMARK    5  A    between atoms: C_8  and  C_9
REMARK    6  A    between atoms: C_9  and  C_10
REMARK    7  A    between atoms: C_10  and  C_11
REMARK    8  A    between atoms: C_10  and  C_13
REMARK    9  A    between atoms: C_10  and  C_19
REMARK                            x       y       z     vdW  Elec       q    Type
REMARK                         _______ _______ _______ _____ _____    ______ ____
ROOT
ATOM      1  C   UNL     1       6.160  -2.395  -1.346  0.00  0.00    +0.000 C 
ENDROOT
BRANCH   1   5
ATOM      2  C   UNL     1       3.226  -0.561   1.109  0.00  0.00    +0.000 C 
ATOM      3  C   UNL     1       4.670  -0.004   1.079  0.00  0.00    +0.000 C 
ATOM      4  C   UNL     1       5.427  -0.504  -0.144  0.00  0.00    +0.000 C 
ATOM      5  N   UNL     1       5.394  -1.977  -0.185  0.00  0.00    +0.000 NA
ATOM      6  C   UNL     1       4.034  -2.478  -0.313  0.00  0.00    +0.000 C 
ATOM      7  C   UNL     1       3.267  -2.082   0.907  0.00  0.00    +0.000 C 
BRANCH   2   8
ATOM      8  C   UNL     1       2.570  -0.259   2.457  0.00  0.00    +0.000 A 
ATOM      9  C   UNL     1       2.042  -1.276   3.278  0.00  0.00    +0.000 A 
ATOM     10  C   UNL     1       1.243  -0.970   4.366  0.00  0.00    +0.000 A 
ATOM     11  C   UNL     1       1.077   0.356   4.736  0.00  0.00    +0.000 A 
ATOM     12  C   UNL     1       1.658   1.374   3.983  0.00  0.00    +0.000 A 
ATOM     13  C   UNL     1       2.399   1.072   2.847  0.00  0.00    +0.000 A 
ENDBRANCH   2   8
BRANCH   2  14
ATOM     14  C   UNL     1       2.427   0.093  -0.062  0.00  0.00    +0.000 C 
ATOM     15  O   UNL     1       2.937   0.658  -1.021  0.00  0.00    +0.000 OA
BRANCH  14  16
ATOM     16  O   UNL     1       1.081  -0.009   0.002  0.00  0.00    +0.000 OA
ATOM     17  H   UNL     1       0.729  -0.391   0.826  0.00  0.00    +0.000 HD
ENDBRANCH  14  16
ENDBRANCH   2  14
ENDBRANCH   1   5
BRANCH   1  18
ATOM     18  C   UNL     1       6.310  -3.907  -1.498  0.00  0.00    +0.000 C 
BRANCH  18  19
ATOM     19  C   UNL     1       7.099  -4.352  -2.774  0.00  0.00    +0.000 C 
BRANCH  19  20
ATOM     20  C   UNL     1       8.538  -3.765  -2.770  0.00  0.00    +0.000 A 
ATOM     21  C   UNL     1       9.689  -4.560  -2.680  0.00  0.00    +0.000 A 
ATOM     22  C   UNL     1      10.905  -4.041  -2.269  0.00  0.00    +0.000 A 
ATOM     23  C   UNL     1      11.066  -2.670  -2.205  0.00  0.00    +0.000 A 
ATOM     24  C   UNL     1       9.988  -1.836  -2.462  0.00  0.00    +0.000 A 
ATOM     25  C   UNL     1       8.747  -2.380  -2.770  0.00  0.00    +0.000 A 
ENDBRANCH  19  20
BRANCH  19  26
ATOM     26  C   UNL     1       7.060  -5.901  -2.680  0.00  0.00    +0.000 A 
ATOM     27  C   UNL     1       6.178  -6.685  -3.431  0.00  0.00    +0.000 A 
ATOM     28  C   UNL     1       6.200  -8.073  -3.294  0.00  0.00    +0.000 A 
ATOM     29  C   UNL     1       7.197  -8.697  -2.545  0.00  0.00    +0.000 A 
ATOM     30  C   UNL     1       8.065  -7.939  -1.783  0.00  0.00    +0.000 A 
ATOM     31  C   UNL     1       7.900  -6.566  -1.759  0.00  0.00    +0.000 A 
ENDBRANCH  19  26
BRANCH  19  32
ATOM     32  C   UNL     1       6.383  -3.849  -3.980  0.00  0.00    +0.000 C 
ATOM     33  N   UNL     1       5.797  -3.428  -4.903  0.00  0.00    +0.000 NA
ENDBRANCH  19  32
ENDBRANCH  18  19
ENDBRANCH   1  18
TORSDOF 9
