REMARK  Name = Difelikefalin
REMARK  24 active torsions:
REMARK  status: ('A' for Active; 'I' for Inactive)
REMARK    1  A    between atoms: C_1  and  C_2
REMARK    2  A    between atoms: C_2  and  C_3
REMARK    3  A    between atoms: C_2  and  C_4
REMARK    4  A    between atoms: C_4  and  C_5
REMARK    5  A    between atoms: C_5  and  N_6
REMARK    6  A    between atoms: C_5  and  C_29
REMARK    7  A    between atoms: C_7  and  C_9
REMARK    8  A    between atoms: C_9  and  C_10
REMARK    9  A    between atoms: C_9  and  N_17
REMARK   10  A    between atoms: C_10  and  C_11
REMARK   11  A    between atoms: C_18  and  C_20
REMARK   12  A    between atoms: C_20  and  N_21
REMARK   13  A    between atoms: C_20  and  C_22
REMARK   14  A    between atoms: C_22  and  C_23
REMARK   15  A    between atoms: N_31  and  C_32
REMARK   16  A    between atoms: C_32  and  C_33
REMARK   17  A    between atoms: C_32  and  C_38
REMARK   18  A    between atoms: C_33  and  C_34
REMARK   19  A    between atoms: C_34  and  C_35
REMARK   20  A    between atoms: C_35  and  C_36
REMARK   21  A    between atoms: C_36  and  N_37
REMARK   22  A    between atoms: C_43  and  N_44
REMARK   23  A    between atoms: C_43  and  C_47
REMARK   24  A    between atoms: C_47  and  O_48
REMARK                            x       y       z     vdW  Elec       q    Type
REMARK                         _______ _______ _______ _____ _____    ______ ____
ROOT
ATOM      1  C   UNL     1       0.236   1.276  -5.049  0.00  0.00    +0.000 C 
ENDROOT
BRANCH   1   2
ATOM      2  N   UNL     1      -0.134   1.863  -3.620  0.00  0.00    +0.000 N 
ATOM      3  C   UNL     1      -0.063   1.422  -2.214  0.00  0.00    +0.000 C 
ATOM      4  O   UNL     1       0.221   0.310  -1.746  0.00  0.00    +0.000 OA
ATOM      5  H   UNL     1      -0.943   2.431  -3.802  0.00  0.00    +0.000 HD
BRANCH   3   6
ATOM      6  C   UNL     1      -0.118   2.403  -1.062  0.00  0.00    +0.000 C 
BRANCH   6   7
ATOM      7  N   UNL     1       0.581   1.699   0.046  0.00  0.00    +0.000 N 
ATOM      8  C   UNL     1       0.709   2.255   1.277  0.00  0.00    +0.000 C 
ATOM      9  O   UNL     1       0.288   3.381   1.446  0.00  0.00    +0.000 OA
ATOM     10  H   UNL     1       0.950   0.760  -0.129  0.00  0.00    +0.000 HD
BRANCH   8  11
ATOM     11  C   UNL     1       1.407   1.410   2.376  0.00  0.00    +0.000 C 
BRANCH  11  12
ATOM     12  N   UNL     1       1.786   0.040   1.930  0.00  0.00    +0.000 NA
ATOM     13  H   UNL     1       0.945  -0.520   1.776  0.00  0.00    +0.000 HD
ATOM     14  H   UNL     1       2.268  -0.426   2.703  0.00  0.00    +0.000 HD
ENDBRANCH  11  12
BRANCH  11  15
ATOM     15  C   UNL     1       0.520   1.329   3.627  0.00  0.00    +0.000 C 
BRANCH  15  16
ATOM     16  C   UNL     1       0.083   2.674   4.145  0.00  0.00    +0.000 A 
ATOM     17  C   UNL     1       0.976   3.505   4.827  0.00  0.00    +0.000 A 
ATOM     18  C   UNL     1       0.546   4.740   5.308  0.00  0.00    +0.000 A 
ATOM     19  C   UNL     1      -0.741   5.195   5.019  0.00  0.00    +0.000 A 
ATOM     20  C   UNL     1      -1.614   4.405   4.276  0.00  0.00    +0.000 A 
ATOM     21  C   UNL     1      -1.210   3.141   3.859  0.00  0.00    +0.000 A 
ENDBRANCH  15  16
ENDBRANCH  11  15
ENDBRANCH   8  11
ENDBRANCH   6   7
BRANCH   6  22
ATOM     22  C   UNL     1      -1.593   2.599  -0.779  0.00  0.00    +0.000 C 
BRANCH  22  23
ATOM     23  C   UNL     1      -2.235   3.421  -1.870  0.00  0.00    +0.000 A 
ATOM     24  C   UNL     1      -1.482   4.163  -2.807  0.00  0.00    +0.000 A 
ATOM     25  C   UNL     1      -2.056   4.636  -3.975  0.00  0.00    +0.000 A 
ATOM     26  C   UNL     1      -3.430   4.575  -4.107  0.00  0.00    +0.000 A 
ATOM     27  C   UNL     1      -4.209   3.979  -3.109  0.00  0.00    +0.000 A 
ATOM     28  C   UNL     1      -3.613   3.343  -2.026  0.00  0.00    +0.000 A 
ENDBRANCH  22  23
ENDBRANCH   6  22
ENDBRANCH   3   6
ENDBRANCH   1   2
BRANCH   1  29
ATOM     29  C   UNL     1      -0.744   1.797  -6.155  0.00  0.00    +0.000 C 
ATOM     30  O   UNL     1      -0.365   2.061  -7.297  0.00  0.00    +0.000 OA
ATOM     31  N   UNL     1      -2.097   1.893  -5.924  0.00  0.00    +0.000 N 
ATOM     32  H   UNL     1      -2.481   2.455  -6.670  0.00  0.00    +0.000 HD
BRANCH  31  33
ATOM     33  C   UNL     1      -3.122   1.151  -5.108  0.00  0.00    +0.000 C 
BRANCH  33  34
ATOM     34  C   UNL     1      -4.248   0.263  -5.734  0.00  0.00    +0.000 C 
ATOM     35  O   UNL     1      -4.556  -0.832  -5.221  0.00  0.00    +0.000 OA
ATOM     36  N   UNL     1      -5.123   0.837  -6.633  0.00  0.00    +0.000 N 
ATOM     37  C   UNL     1      -6.444   0.233  -6.743  0.00  0.00    +0.000 C 
ATOM     38  C   UNL     1      -7.470   1.300  -7.125  0.00  0.00    +0.000 C 
ATOM     39  C   UNL     1      -7.041   2.061  -8.390  0.00  0.00    +0.000 C 
ATOM     40  C   UNL     1      -5.632   2.643  -8.164  0.00  0.00    +0.000 C 
ATOM     41  C   UNL     1      -4.675   1.514  -7.837  0.00  0.00    +0.000 C 
BRANCH  39  42
ATOM     42  N   UNL     1      -7.969   3.192  -8.601  0.00  0.00    +0.000 NA
ATOM     43  H   UNL     1      -7.988   3.805  -7.787  0.00  0.00    +0.000 HD
ATOM     44  H   UNL     1      -8.918   2.858  -8.752  0.00  0.00    +0.000 HD
ENDBRANCH  39  42
BRANCH  39  45
ATOM     45  C   UNL     1      -7.003   1.199  -9.704  0.00  0.00    +0.000 C 
ATOM     46  O   UNL     1      -6.585   1.616 -10.758  0.00  0.00    +0.000 OA
BRANCH  45  47
ATOM     47  O   UNL     1      -7.444  -0.082  -9.611  0.00  0.00    +0.000 OA
ATOM     48  H   UNL     1      -7.817  -0.414  -8.781  0.00  0.00    +0.000 HD
ENDBRANCH  45  47
ENDBRANCH  39  45
ENDBRANCH  33  34
BRANCH  33  49
ATOM     49  C   UNL     1      -2.605   0.331  -3.907  0.00  0.00    +0.000 C 
BRANCH  49  50
ATOM     50  C   UNL     1      -1.713  -0.886  -4.355  0.00  0.00    +0.000 C 
BRANCH  50  51
ATOM     51  C   UNL     1      -0.520  -1.155  -3.418  0.00  0.00    +0.000 C 
BRANCH  51  52
ATOM     52  C   UNL     1       0.760  -1.983  -3.607  0.00  0.00    +0.000 C 
BRANCH  52  53
ATOM     53  N   UNL     1       1.873  -1.812  -2.600  0.00  0.00    +0.000 NA
ATOM     54  H   UNL     1       2.107  -0.833  -2.380  0.00  0.00    +0.000 HD
ATOM     55  H   UNL     1       2.753  -2.171  -2.977  0.00  0.00    +0.000 HD
ENDBRANCH  52  53
ENDBRANCH  51  52
ENDBRANCH  50  51
ENDBRANCH  49  50
ENDBRANCH  33  49
ENDBRANCH  31  33
ENDBRANCH   1  29
BRANCH   1  56
ATOM     56  C   UNL     1       1.752   1.191  -5.452  0.00  0.00    +0.000 C 
BRANCH  56  58
ATOM     57  C   UNL     1       4.064   0.108  -4.729  0.00  0.00    +0.000 C 
ATOM     58  C   UNL     1       2.689   0.600  -4.378  0.00  0.00    +0.000 C 
ATOM     59  C   UNL     1       2.726   1.410  -3.106  0.00  0.00    +0.000 C 
ENDBRANCH  56  58
ENDBRANCH   1  56
TORSDOF 22
