REMARK  Name = Diflorasone
REMARK  8 active torsions:
REMARK  status: ('A' for Active; 'I' for Inactive)
REMARK    1  A    between atoms: C_4  and  C_5
REMARK    2  A    between atoms: C_6  and  O_7
REMARK    3  A    between atoms: C_6  and  C_8
REMARK    4  A    between atoms: C_8  and  C_10
REMARK    5  A    between atoms: C_10  and  O_11
REMARK    6  A    between atoms: C_12  and  C_13
REMARK    7  A    between atoms: C_15  and  O_16
REMARK    8  A    between atoms: C_30  and  C_31
REMARK                            x       y       z     vdW  Elec       q    Type
REMARK                         _______ _______ _______ _____ _____    ______ ____
ROOT
ATOM      1  C   UNL     1       1.721  -0.053  -0.074  0.00  0.00    +0.000 C 
ATOM      2  C   UNL     1       2.291   0.061   1.275  0.00  0.00    +0.000 C 
ATOM      3  C   UNL     1       3.522  -0.315   0.478  0.00  0.00    +0.000 C 
ATOM      4  C   UNL     1       5.008   0.351   1.524  0.00  0.00    +0.000 C 
ATOM      5  C   UNL     1       2.827  -0.809  -1.421  0.00  0.00    +0.000 C 
ATOM      6  C   UNL     1       2.527  -1.552  -0.372  0.00  0.00    +0.000 C 
ATOM      7  C   UNL     1       1.847  -2.777   0.051  0.00  0.00    +0.000 C 
ATOM      8  C   UNL     1       4.380  -1.704  -0.732  0.00  0.00    +0.000 C 
ATOM      9  C   UNL     1       4.906  -0.109  -1.530  0.00  0.00    +0.000 C 
ATOM     10  C   UNL     1       3.901   1.459  -1.335  0.00  0.00    +0.000 C 
ATOM     11  F   UNL     1       3.716   1.483   0.062  0.00  0.00    +0.000 F 
ATOM     12  C   UNL     1       2.253   1.369  -1.148  0.00  0.00    +0.000 C 
ATOM     13  C   UNL     1       1.796   2.631  -0.340  0.00  0.00    +0.000 C 
ATOM     14  C   UNL     1       2.447   3.886  -0.861  0.00  0.00    +0.000 C 
ATOM     15  F   UNL     1       2.292   3.909  -2.209  0.00  0.00    +0.000 F 
ATOM     16  C   UNL     1       3.865   3.885  -0.477  0.00  0.00    +0.000 C 
ATOM     17  C   UNL     1       4.608   4.756   0.261  0.00  0.00    +0.000 C 
ATOM     18  C   UNL     1       4.504   5.840  -0.611  0.00  0.00    +0.000 C 
ATOM     19  O   UNL     1       3.941   6.802  -0.144  0.00  0.00    +0.000 OA
ATOM     20  C   UNL     1       5.490   5.393  -1.738  0.00  0.00    +0.000 C 
ATOM     21  C   UNL     1       5.601   3.990  -2.023  0.00  0.00    +0.000 C 
ATOM     22  C   UNL     1       4.740   2.923  -1.145  0.00  0.00    +0.000 C 
ATOM     23  C   UNL     1       5.365   2.585   0.249  0.00  0.00    +0.000 C 
ENDROOT
BRANCH   5  24
ATOM     24  O   UNL     1       3.095  -2.159  -2.327  0.00  0.00    +0.000 OA
ATOM     25  H   UNL     1       3.075  -1.979  -3.299  0.00  0.00    +0.000 HD
ENDBRANCH   5  24
BRANCH   5  26
ATOM     26  C   UNL     1       1.525  -0.869  -2.795  0.00  0.00    +0.000 C 
ATOM     27  O   UNL     1       1.975  -1.097  -3.961  0.00  0.00    +0.000 OA
BRANCH  26  28
ATOM     28  C   UNL     1      -0.074  -0.837  -2.861  0.00  0.00    +0.000 C 
BRANCH  28  29
ATOM     29  O   UNL     1      -0.732  -1.090  -4.164  0.00  0.00    +0.000 OA
ATOM     30  H   UNL     1      -0.391  -0.523  -4.884  0.00  0.00    +0.000 HD
ENDBRANCH  28  29
ENDBRANCH  26  28
ENDBRANCH   5  26
BRANCH   9  31
ATOM     31  O   UNL     1       6.273   0.004  -1.170  0.00  0.00    +0.000 OA
ATOM     32  H   UNL     1       6.304  -0.220  -0.222  0.00  0.00    +0.000 HD
ENDBRANCH   9  31
TORSDOF 5
