REMARK  Name = Diflunisal
REMARK  4 active torsions:
REMARK  status: ('A' for Active; 'I' for Inactive)
REMARK    1  A    between atoms: O_1  and  C_2
REMARK    2  A    between atoms: C_2  and  C_4
REMARK    3  A    between atoms: C_5  and  O_6
REMARK    4  A    between atoms: C_9  and  C_11
REMARK                            x       y       z     vdW  Elec       q    Type
REMARK                         _______ _______ _______ _____ _____    ______ ____
ROOT
ATOM      1  C   UNL     1       3.059  -0.330   1.371  0.00  0.00    +0.000 A 
ATOM      2  C   UNL     1       2.668  -1.400   2.179  0.00  0.00    +0.000 A 
ATOM      3  C   UNL     1       3.341  -1.653   3.373  0.00  0.00    +0.000 A 
ATOM      4  C   UNL     1       4.415  -0.846   3.761  0.00  0.00    +0.000 A 
ATOM      5  C   UNL     1       4.842   0.225   2.961  0.00  0.00    +0.000 A 
ATOM      6  C   UNL     1       4.153   0.466   1.757  0.00  0.00    +0.000 A 
ENDROOT
BRANCH   5   7
ATOM      7  C   UNL     1       5.981   1.059   3.376  0.00  0.00    +0.000 A 
ATOM      8  C   UNL     1       5.843   2.442   3.585  0.00  0.00    +0.000 A 
ATOM      9  F   UNL     1       4.645   3.027   3.430  0.00  0.00    +0.000 F 
ATOM     10  C   UNL     1       6.918   3.239   3.969  0.00  0.00    +0.000 A 
ATOM     11  C   UNL     1       8.159   2.650   4.157  0.00  0.00    +0.000 A 
ATOM     12  F   UNL     1       9.204   3.408   4.515  0.00  0.00    +0.000 F 
ATOM     13  C   UNL     1       8.335   1.283   3.978  0.00  0.00    +0.000 A 
ATOM     14  C   UNL     1       7.251   0.490   3.588  0.00  0.00    +0.000 A 
ENDBRANCH   5   7
BRANCH   1  15
ATOM     15  C   UNL     1       2.400  -0.031   0.081  0.00  0.00    +0.000 C 
ATOM     16  O   UNL     1       3.023   0.256  -0.929  0.00  0.00    +0.000 OA
BRANCH  15  17
ATOM     17  O   UNL     1       1.054  -0.141   0.116  0.00  0.00    +0.000 OA
ATOM     18  H   UNL     1       0.654  -0.149   1.011  0.00  0.00    +0.000 HD
ENDBRANCH  15  17
ENDBRANCH   1  15
BRANCH   2  19
ATOM     19  O   UNL     1       1.640  -2.250   1.874  0.00  0.00    +0.000 OA
ATOM     20  H   UNL     1       1.397  -2.170   0.932  0.00  0.00    +0.000 HD
ENDBRANCH   2  19
TORSDOF 4
