REMARK  Name = Difluprednate
REMARK  13 active torsions:
REMARK  status: ('A' for Active; 'I' for Inactive)
REMARK    1  A    between atoms: C_5  and  O_6
REMARK    2  A    between atoms: C_5  and  C_12
REMARK    3  A    between atoms: O_6  and  C_7
REMARK    4  A    between atoms: C_7  and  C_9
REMARK    5  A    between atoms: C_9  and  C_10
REMARK    6  A    between atoms: C_10  and  C_11
REMARK    7  A    between atoms: C_12  and  C_14
REMARK    8  A    between atoms: C_14  and  O_15
REMARK    9  A    between atoms: O_15  and  C_16
REMARK   10  A    between atoms: C_16  and  C_17
REMARK   11  A    between atoms: C_19  and  C_20
REMARK   12  A    between atoms: C_22  and  O_23
REMARK   13  A    between atoms: C_37  and  C_38
REMARK                            x       y       z     vdW  Elec       q    Type
REMARK                         _______ _______ _______ _____ _____    ______ ____
ROOT
ATOM      1  C   UNL     1       1.730  -0.105  -0.115  0.00  0.00    +0.000 C 
ATOM      2  C   UNL     1       2.170  -0.030  -1.473  0.00  0.00    +0.000 C 
ATOM      3  C   UNL     1       3.164  -0.541  -0.483  0.00  0.00    +0.000 C 
ATOM      4  C   UNL     1       2.480  -1.063   1.389  0.00  0.00    +0.000 C 
ATOM      5  C   UNL     1       2.590  -1.757   0.236  0.00  0.00    +0.000 C 
ATOM      6  C   UNL     1       1.809  -2.921  -0.276  0.00  0.00    +0.000 C 
ATOM      7  C   UNL     1       4.429  -1.699   0.669  0.00  0.00    +0.000 C 
ATOM      8  C   UNL     1       4.819  -0.122   1.399  0.00  0.00    +0.000 C 
ATOM      9  C   UNL     1       3.990   1.382   0.984  0.00  0.00    +0.000 C 
ATOM     10  F   UNL     1       3.846   1.469  -0.417  0.00  0.00    +0.000 F 
ATOM     11  C   UNL     1       2.413   1.293   0.945  0.00  0.00    +0.000 C 
ATOM     12  C   UNL     1       1.855   2.542   0.222  0.00  0.00    +0.000 C 
ATOM     13  C   UNL     1       2.508   3.786   0.715  0.00  0.00    +0.000 C 
ATOM     14  F   UNL     1       1.870   4.816   0.104  0.00  0.00    +0.000 F 
ATOM     15  C   UNL     1       3.939   3.743   0.240  0.00  0.00    +0.000 C 
ATOM     16  C   UNL     1       4.570   4.794  -0.324  0.00  0.00    +0.000 C 
ATOM     17  C   UNL     1       4.468   5.645   0.856  0.00  0.00    +0.000 C 
ATOM     18  O   UNL     1       3.686   6.557   1.010  0.00  0.00    +0.000 OA
ATOM     19  C   UNL     1       5.473   5.123   1.836  0.00  0.00    +0.000 C 
ATOM     20  C   UNL     1       5.645   3.735   1.902  0.00  0.00    +0.000 C 
ATOM     21  C   UNL     1       4.891   2.724   0.864  0.00  0.00    +0.000 C 
ATOM     22  C   UNL     1       5.769   2.278  -0.481  0.00  0.00    +0.000 C 
ENDROOT
BRANCH   4  23
ATOM     23  C   UNL     1       2.742  -2.535   2.475  0.00  0.00    +0.000 C 
ATOM     24  O   UNL     1       3.225  -3.593   2.032  0.00  0.00    +0.000 OA
BRANCH  23  25
ATOM     25  C   UNL     1       2.321  -2.674   4.032  0.00  0.00    +0.000 C 
BRANCH  25  26
ATOM     26  O   UNL     1       2.837  -3.999   4.575  0.00  0.00    +0.000 OA
BRANCH  26  27
ATOM     27  C   UNL     1       2.735  -4.567   5.811  0.00  0.00    +0.000 C 
ATOM     28  C   UNL     1       1.995  -3.832   6.887  0.00  0.00    +0.000 C 
ATOM     29  O   UNL     1       3.240  -5.660   6.072  0.00  0.00    +0.000 OA
ENDBRANCH  26  27
ENDBRANCH  25  26
ENDBRANCH  23  25
ENDBRANCH   4  23
BRANCH   8  30
ATOM     30  O   UNL     1       4.750  -0.342   2.821  0.00  0.00    +0.000 OA
ATOM     31  H   UNL     1       3.839  -0.259   3.139  0.00  0.00    +0.000 HD
ENDBRANCH   8  30
BRANCH   4  32
ATOM     32  O   UNL     1       0.830  -1.142   1.724  0.00  0.00    +0.000 OA
BRANCH  32  33
ATOM     33  C   UNL     1      -0.058  -0.100   1.851  0.00  0.00    +0.000 C 
ATOM     34  O   UNL     1       0.263   1.079   1.911  0.00  0.00    +0.000 OA
BRANCH  33  35
ATOM     35  C   UNL     1      -1.540  -0.318   1.833  0.00  0.00    +0.000 C 
BRANCH  35  36
ATOM     36  C   UNL     1      -2.136   0.978   1.179  0.00  0.00    +0.000 C 
ATOM     37  C   UNL     1      -3.636   1.077   1.250  0.00  0.00    +0.000 C 
ENDBRANCH  35  36
ENDBRANCH  33  35
ENDBRANCH  32  33
ENDBRANCH   4  32
TORSDOF 9
