REMARK  Name = Difluocortolone
REMARK  7 active torsions:
REMARK  status: ('A' for Active; 'I' for Inactive)
REMARK    1  A    between atoms: C_4  and  C_5
REMARK    2  A    between atoms: C_6  and  C_7
REMARK    3  A    between atoms: C_7  and  C_9
REMARK    4  A    between atoms: C_9  and  O_10
REMARK    5  A    between atoms: C_11  and  C_12
REMARK    6  A    between atoms: C_14  and  O_15
REMARK    7  A    between atoms: C_29  and  C_30
REMARK                            x       y       z     vdW  Elec       q    Type
REMARK                         _______ _______ _______ _____ _____    ______ ____
ROOT
ATOM      1  C   UNL     1       1.758  -0.131   0.020  0.00  0.00    +0.000 C 
ATOM      2  C   UNL     1       2.238  -0.040   1.390  0.00  0.00    +0.000 C 
ATOM      3  C   UNL     1       3.398  -0.504   0.581  0.00  0.00    +0.000 C 
ATOM      4  C   UNL     1       4.425  -1.173   1.897  0.00  0.00    +0.000 C 
ATOM      5  C   UNL     1       2.748  -0.935  -1.314  0.00  0.00    +0.000 C 
ATOM      6  C   UNL     1       2.634  -1.725  -0.265  0.00  0.00    +0.000 C 
ATOM      7  C   UNL     1       1.910  -2.933   0.132  0.00  0.00    +0.000 C 
ATOM      8  C   UNL     1       4.428  -1.806  -0.713  0.00  0.00    +0.000 C 
ATOM      9  C   UNL     1       4.953  -0.185  -1.411  0.00  0.00    +0.000 C 
ATOM     10  C   UNL     1       4.058   1.375  -1.103  0.00  0.00    +0.000 C 
ATOM     11  F   UNL     1       3.886   1.513   0.311  0.00  0.00    +0.000 F 
ATOM     12  C   UNL     1       2.401   1.306  -0.988  0.00  0.00    +0.000 C 
ATOM     13  C   UNL     1       1.930   2.565  -0.216  0.00  0.00    +0.000 C 
ATOM     14  C   UNL     1       2.644   3.780  -0.737  0.00  0.00    +0.000 C 
ATOM     15  F   UNL     1       2.523   3.809  -2.091  0.00  0.00    +0.000 F 
ATOM     16  C   UNL     1       4.065   3.679  -0.264  0.00  0.00    +0.000 C 
ATOM     17  C   UNL     1       4.745   4.584   0.469  0.00  0.00    +0.000 C 
ATOM     18  C   UNL     1       4.694   5.667  -0.451  0.00  0.00    +0.000 C 
ATOM     19  O   UNL     1       4.099   6.675  -0.141  0.00  0.00    +0.000 OA
ATOM     20  C   UNL     1       5.615   5.219  -1.604  0.00  0.00    +0.000 C 
ATOM     21  C   UNL     1       5.762   3.834  -1.858  0.00  0.00    +0.000 C 
ATOM     22  C   UNL     1       5.013   2.693  -0.907  0.00  0.00    +0.000 C 
ATOM     23  C   UNL     1       5.838   2.254   0.541  0.00  0.00    +0.000 C 
ENDROOT
BRANCH   5  24
ATOM     24  C   UNL     1       1.383  -0.874  -2.525  0.00  0.00    +0.000 C 
ATOM     25  O   UNL     1       1.578  -0.139  -3.521  0.00  0.00    +0.000 OA
BRANCH  24  26
ATOM     26  C   UNL     1       0.124  -1.877  -2.714  0.00  0.00    +0.000 C 
BRANCH  26  27
ATOM     27  O   UNL     1      -0.724  -1.677  -3.887  0.00  0.00    +0.000 OA
ATOM     28  H   UNL     1      -1.040  -0.757  -3.947  0.00  0.00    +0.000 HD
ENDBRANCH  26  27
ENDBRANCH  24  26
ENDBRANCH   5  24
BRANCH   9  29
ATOM     29  O   UNL     1       6.326  -0.096  -1.054  0.00  0.00    +0.000 OA
ATOM     30  H   UNL     1       6.352  -0.322  -0.106  0.00  0.00    +0.000 HD
ENDBRANCH   9  29
TORSDOF 4
