REMARK  Name = Dihydroergocristine
REMARK  9 active torsions:
REMARK  status: ('A' for Active; 'I' for Inactive)
REMARK    1  A    between atoms: C_9  and  C_10
REMARK    2  A    between atoms: C_10  and  C_11
REMARK    3  A    between atoms: C_20  and  N_21
REMARK    4  A    between atoms: C_20  and  C_46
REMARK    5  A    between atoms: C_22  and  C_24
REMARK    6  A    between atoms: N_26  and  C_27
REMARK    7  A    between atoms: C_44  and  O_45
REMARK    8  A    between atoms: C_46  and  C_47
REMARK    9  A    between atoms: C_46  and  C_48
REMARK                            x       y       z     vdW  Elec       q    Type
REMARK                         _______ _______ _______ _____ _____    ______ ____
ROOT
ATOM      1  C   UNL     1      -6.591   8.815  -9.224  0.00  0.00    +0.000 C 
ATOM      2  C   UNL     1      -6.879   9.699 -10.452  0.00  0.00    +0.000 C 
ATOM      3  C   UNL     1      -8.347   9.535 -10.798  0.00  0.00    +0.000 C 
ATOM      4  C   UNL     1      -8.955   8.700  -9.705  0.00  0.00    +0.000 C 
ATOM      5  N   UNL     1      -7.847   8.156  -8.970  0.00  0.00    +0.000 N 
ATOM      6  C   UNL     1      -7.752   6.833  -8.727  0.00  0.00    +0.000 C 
ATOM      7  O   UNL     1      -8.542   6.060  -9.251  0.00  0.00    +0.000 OA
ATOM      8  C   UNL     1      -6.528   6.384  -7.966  0.00  0.00    +0.000 C 
ATOM      9  N   UNL     1      -5.537   7.597  -7.882  0.00  0.00    +0.000 N 
ATOM     10  C   UNL     1      -4.315   7.562  -7.179  0.00  0.00    +0.000 C 
ATOM     11  O   UNL     1      -3.789   8.598  -6.809  0.00  0.00    +0.000 OA
ATOM     12  C   UNL     1      -3.976   6.165  -6.762  0.00  0.00    +0.000 C 
ATOM     13  O   UNL     1      -4.329   6.381  -8.580  0.00  0.00    +0.000 OA
ATOM     14  C   UNL     1      -5.140   7.785  -9.196  0.00  0.00    +0.000 C 
ENDROOT
BRANCH  12  15
ATOM     15  N   UNL     1      -2.859   5.322  -6.010  0.00  0.00    +0.000 N 
ATOM     16  C   UNL     1      -2.023   6.369  -5.052  0.00  0.00    +0.000 C 
ATOM     17  O   UNL     1      -1.475   7.231  -5.749  0.00  0.00    +0.000 OA
ATOM     18  H   UNL     1      -3.351   4.524  -5.435  0.00  0.00    +0.000 HD
BRANCH  16  19
ATOM     19  C   UNL     1      -2.060   6.623  -3.145  0.00  0.00    +0.000 C 
ATOM     20  C   UNL     1      -1.390   7.928  -2.820  0.00  0.00    +0.000 C 
ATOM     21  N   UNL     1      -1.238   8.039  -1.351  0.00  0.00    +0.000 NA
ATOM     22  C   UNL     1      -0.636   9.310  -1.072  0.00  0.00    +0.000 C 
ATOM     23  C   UNL     1      -2.563   8.053  -0.446  0.00  0.00    +0.000 C 
ATOM     24  C   UNL     1      -3.429   9.090  -0.157  0.00  0.00    +0.000 C 
ATOM     25  C   UNL     1      -3.314  10.450   0.266  0.00  0.00    +0.000 A 
ATOM     26  C   UNL     1      -3.324  11.049  -1.000  0.00  0.00    +0.000 A 
ATOM     27  N   UNL     1      -2.844  12.125  -0.376  0.00  0.00    +0.000 N 
ATOM     28  C   UNL     1      -3.919  12.757  -0.008  0.00  0.00    +0.000 A 
ATOM     29  C   UNL     1      -4.104  14.071  -0.442  0.00  0.00    +0.000 A 
ATOM     30  C   UNL     1      -5.373  14.120  -0.269  0.00  0.00    +0.000 A 
ATOM     31  C   UNL     1      -5.946  12.337  -0.286  0.00  0.00    +0.000 A 
ATOM     32  C   UNL     1      -5.521  10.465  -0.281  0.00  0.00    +0.000 A 
ATOM     33  C   UNL     1      -4.498  11.305   0.441  0.00  0.00    +0.000 A 
ATOM     34  C   UNL     1      -4.487   8.538  -0.861  0.00  0.00    +0.000 C 
ATOM     35  C   UNL     1      -3.509   7.011  -1.853  0.00  0.00    +0.000 C 
ATOM     36  H   UNL     1      -2.285  12.180   0.441  0.00  0.00    +0.000 HD
ENDBRANCH  16  19
ENDBRANCH  12  15
BRANCH  12  37
ATOM     37  C   UNL     1      -4.360   6.121  -4.954  0.00  0.00    +0.000 C 
ATOM     38  C   UNL     1      -5.220   5.055  -4.345  0.00  0.00    +0.000 C 
ATOM     39  C   UNL     1      -4.288   7.443  -4.284  0.00  0.00    +0.000 C 
ENDBRANCH  12  37
BRANCH  14  40
ATOM     40  O   UNL     1      -4.189   8.815  -9.558  0.00  0.00    +0.000 OA
ATOM     41  H   UNL     1      -4.414   9.294 -10.392  0.00  0.00    +0.000 HD
ENDBRANCH  14  40
BRANCH   8  42
ATOM     42  C   UNL     1      -6.727   5.973  -6.568  0.00  0.00    +0.000 C 
BRANCH  42  43
ATOM     43  C   UNL     1      -7.738   4.975  -6.238  0.00  0.00    +0.000 A 
ATOM     44  C   UNL     1      -8.465   4.339  -7.202  0.00  0.00    +0.000 A 
ATOM     45  C   UNL     1      -9.599   3.672  -6.841  0.00  0.00    +0.000 A 
ATOM     46  C   UNL     1      -9.791   3.306  -5.529  0.00  0.00    +0.000 A 
ATOM     47  C   UNL     1      -8.980   3.806  -4.554  0.00  0.00    +0.000 A 
ATOM     48  C   UNL     1      -7.985   4.650  -4.918  0.00  0.00    +0.000 A 
ENDBRANCH  42  43
ENDBRANCH   8  42
TORSDOF 6
