REMARK  Name = Dihydrocodeine
REMARK  4 active torsions:
REMARK  status: ('A' for Active; 'I' for Inactive)
REMARK    1  A    between atoms: N_9  and  C_10
REMARK    2  A    between atoms: C_18  and  O_19
REMARK    3  A    between atoms: C_22  and  O_23
REMARK    4  A    between atoms: O_23  and  C_24
REMARK                            x       y       z     vdW  Elec       q    Type
REMARK                         _______ _______ _______ _____ _____    ______ ____
ROOT
ATOM      1  C   UNL     1       1.926   0.008   0.488  0.00  0.00    +0.000 C 
ATOM      2  O   UNL     1       2.669   0.779   1.585  0.00  0.00    +0.000 OA
ATOM      3  C   UNL     1       3.605  -0.136   2.129  0.00  0.00    +0.000 A 
ATOM      4  C   UNL     1       3.967  -1.107   1.221  0.00  0.00    +0.000 A 
ATOM      5  C   UNL     1       4.745  -2.242   1.442  0.00  0.00    +0.000 A 
ATOM      6  C   UNL     1       4.848  -3.316   0.390  0.00  0.00    +0.000 C 
ATOM      7  C   UNL     1       3.754  -3.342  -0.699  0.00  0.00    +0.000 C 
ATOM      8  N   UNL     1       2.359  -3.485  -0.215  0.00  0.00    +0.000 NA
ATOM      9  C   UNL     1       1.845  -3.336   1.140  0.00  0.00    +0.000 C 
ATOM     10  C   UNL     1       1.747  -2.300  -0.924  0.00  0.00    +0.000 C 
ATOM     11  C   UNL     1       2.955  -0.675  -1.103  0.00  0.00    +0.000 C 
ATOM     12  C   UNL     1       3.052  -1.148   0.163  0.00  0.00    +0.000 C 
ATOM     13  C   UNL     1       3.668  -2.014  -1.427  0.00  0.00    +0.000 C 
ATOM     14  C   UNL     1       2.400  -1.525  -2.876  0.00  0.00    +0.000 C 
ATOM     15  C   UNL     1       1.449  -0.076  -2.640  0.00  0.00    +0.000 C 
ATOM     16  C   UNL     1       1.191   0.756  -1.070  0.00  0.00    +0.000 C 
ATOM     17  C   UNL     1       5.242  -2.449   2.699  0.00  0.00    +0.000 A 
ATOM     18  C   UNL     1       4.948  -1.509   3.672  0.00  0.00    +0.000 A 
ATOM     19  C   UNL     1       4.230  -0.300   3.362  0.00  0.00    +0.000 A 
ENDROOT
BRANCH  16  20
ATOM     20  O   UNL     1       1.770   2.062  -1.360  0.00  0.00    +0.000 OA
ATOM     21  H   UNL     1       2.600   1.923  -1.868  0.00  0.00    +0.000 HD
ENDBRANCH  16  20
BRANCH  19  22
ATOM     22  O   UNL     1       4.510   0.745   4.214  0.00  0.00    +0.000 OA
ATOM     23  C   UNL     1       5.905   1.022   3.954  0.00  0.00    +0.000 C 
ENDBRANCH  19  22
TORSDOF 2
