REMARK  Name = Dihydroergocornine
REMARK  10 active torsions:
REMARK  status: ('A' for Active; 'I' for Inactive)
REMARK    1  A    between atoms: C_9  and  C_10
REMARK    2  A    between atoms: C_10  and  C_11
REMARK    3  A    between atoms: C_10  and  C_12
REMARK    4  A    between atoms: C_16  and  N_17
REMARK    5  A    between atoms: C_16  and  C_42
REMARK    6  A    between atoms: C_18  and  C_20
REMARK    7  A    between atoms: N_22  and  C_23
REMARK    8  A    between atoms: C_40  and  O_41
REMARK    9  A    between atoms: C_42  and  C_43
REMARK   10  A    between atoms: C_42  and  C_44
REMARK                            x       y       z     vdW  Elec       q    Type
REMARK                         _______ _______ _______ _____ _____    ______ ____
ROOT
ATOM      1  C   UNL     1      -6.413  -8.570   9.229  0.00  0.00    +0.000 C 
ATOM      2  C   UNL     1      -6.730  -9.531  10.418  0.00  0.00    +0.000 C 
ATOM      3  C   UNL     1      -8.252  -9.425  10.728  0.00  0.00    +0.000 C 
ATOM      4  C   UNL     1      -8.854  -8.587   9.632  0.00  0.00    +0.000 C 
ATOM      5  N   UNL     1      -7.713  -7.934   9.034  0.00  0.00    +0.000 N 
ATOM      6  C   UNL     1      -7.692  -6.621   8.719  0.00  0.00    +0.000 C 
ATOM      7  O   UNL     1      -8.565  -5.819   8.993  0.00  0.00    +0.000 OA
ATOM      8  C   UNL     1      -6.481  -6.321   7.863  0.00  0.00    +0.000 C 
ATOM      9  N   UNL     1      -5.322  -7.544   7.755  0.00  0.00    +0.000 N 
ATOM     10  C   UNL     1      -4.065  -7.662   7.027  0.00  0.00    +0.000 C 
ATOM     11  O   UNL     1      -3.582  -8.759   6.774  0.00  0.00    +0.000 OA
ATOM     12  C   UNL     1      -3.537  -6.312   6.579  0.00  0.00    +0.000 C 
ATOM     13  O   UNL     1      -4.055  -6.193   8.281  0.00  0.00    +0.000 OA
ATOM     14  C   UNL     1      -4.848  -7.548   9.030  0.00  0.00    +0.000 C 
ENDROOT
BRANCH  12  15
ATOM     15  N   UNL     1      -2.308  -5.529   6.223  0.00  0.00    +0.000 N 
ATOM     16  C   UNL     1      -1.502  -6.310   5.309  0.00  0.00    +0.000 C 
ATOM     17  O   UNL     1      -1.014  -7.301   5.863  0.00  0.00    +0.000 OA
ATOM     18  H   UNL     1      -2.634  -4.615   5.877  0.00  0.00    +0.000 HD
BRANCH  16  19
ATOM     19  C   UNL     1      -1.242  -6.207   3.591  0.00  0.00    +0.000 C 
ATOM     20  C   UNL     1      -0.540  -7.545   3.025  0.00  0.00    +0.000 C 
ATOM     21  N   UNL     1      -0.421  -7.642   1.264  0.00  0.00    +0.000 NA
ATOM     22  C   UNL     1       0.298  -8.802   0.704  0.00  0.00    +0.000 C 
ATOM     23  C   UNL     1      -1.769  -7.779   0.392  0.00  0.00    +0.000 C 
ATOM     24  C   UNL     1      -3.484  -8.422   0.139  0.00  0.00    +0.000 C 
ATOM     25  C   UNL     1      -3.372  -9.786  -0.026  0.00  0.00    +0.000 A 
ATOM     26  C   UNL     1      -3.734 -10.624  -1.079  0.00  0.00    +0.000 A 
ATOM     27  N   UNL     1      -3.021 -11.742  -0.834  0.00  0.00    +0.000 N 
ATOM     28  C   UNL     1      -2.240 -11.633   0.314  0.00  0.00    +0.000 A 
ATOM     29  C   UNL     1      -1.212 -12.468   0.719  0.00  0.00    +0.000 A 
ATOM     30  C   UNL     1      -0.515 -11.952   1.803  0.00  0.00    +0.000 A 
ATOM     31  C   UNL     1      -0.885 -10.609   2.402  0.00  0.00    +0.000 A 
ATOM     32  C   UNL     1      -2.058  -9.632   1.974  0.00  0.00    +0.000 A 
ATOM     33  C   UNL     1      -2.615 -10.418   0.910  0.00  0.00    +0.000 A 
ATOM     34  C   UNL     1      -2.288  -7.735   1.736  0.00  0.00    +0.000 C 
ATOM     35  C   UNL     1      -2.302  -6.246   2.516  0.00  0.00    +0.000 C 
ATOM     36  H   UNL     1      -2.943 -12.499  -1.504  0.00  0.00    +0.000 HD
ENDBRANCH  16  19
ENDBRANCH  12  15
BRANCH   8  37
ATOM     37  C   UNL     1      -7.030  -5.956   6.506  0.00  0.00    +0.000 C 
ATOM     38  C   UNL     1      -8.287  -6.425   5.893  0.00  0.00    +0.000 C 
ATOM     39  C   UNL     1      -6.223  -6.813   5.665  0.00  0.00    +0.000 C 
ENDBRANCH   8  37
BRANCH  12  40
ATOM     40  C   UNL     1      -4.120  -6.063   4.848  0.00  0.00    +0.000 C 
ATOM     41  C   UNL     1      -5.060  -4.867   4.281  0.00  0.00    +0.000 C 
ATOM     42  C   UNL     1      -4.133  -7.481   4.130  0.00  0.00    +0.000 C 
ENDBRANCH  12  40
BRANCH  14  43
ATOM     43  O   UNL     1      -3.895  -8.535   9.413  0.00  0.00    +0.000 OA
ATOM     44  H   UNL     1      -4.245  -9.001  10.197  0.00  0.00    +0.000 HD
ENDBRANCH  14  43
TORSDOF 5
