REMARK  Name = Dihydro-alpha-ergocryptine
REMARK  11 active torsions:
REMARK  status: ('A' for Active; 'I' for Inactive)
REMARK    1  A    between atoms: C_9  and  C_10
REMARK    2  A    between atoms: C_10  and  C_11
REMARK    3  A    between atoms: C_11  and  C_12
REMARK    4  A    between atoms: C_11  and  C_13
REMARK    5  A    between atoms: C_17  and  N_18
REMARK    6  A    between atoms: C_17  and  C_43
REMARK    7  A    between atoms: C_19  and  C_21
REMARK    8  A    between atoms: N_23  and  C_24
REMARK    9  A    between atoms: C_41  and  O_42
REMARK   10  A    between atoms: C_43  and  C_44
REMARK   11  A    between atoms: C_43  and  C_45
REMARK                            x       y       z     vdW  Elec       q    Type
REMARK                         _______ _______ _______ _____ _____    ______ ____
ROOT
ATOM      1  C   UNL     1      -6.332   8.828  -9.346  0.00  0.00    +0.000 C 
ATOM      2  C   UNL     1      -6.582   9.742 -10.582  0.00  0.00    +0.000 C 
ATOM      3  C   UNL     1      -8.088   9.647 -10.938  0.00  0.00    +0.000 C 
ATOM      4  C   UNL     1      -8.738   8.845  -9.842  0.00  0.00    +0.000 C 
ATOM      5  N   UNL     1      -7.639   8.240  -9.125  0.00  0.00    +0.000 N 
ATOM      6  C   UNL     1      -7.580   6.914  -8.901  0.00  0.00    +0.000 C 
ATOM      7  O   UNL     1      -8.366   6.137  -9.420  0.00  0.00    +0.000 OA
ATOM      8  C   UNL     1      -6.400   6.570  -7.972  0.00  0.00    +0.000 C 
ATOM      9  N   UNL     1      -5.360   7.757  -7.767  0.00  0.00    +0.000 N 
ATOM     10  C   UNL     1      -4.168   7.779  -7.024  0.00  0.00    +0.000 C 
ATOM     11  O   UNL     1      -3.585   8.838  -6.748  0.00  0.00    +0.000 OA
ATOM     12  C   UNL     1      -3.717   6.417  -6.661  0.00  0.00    +0.000 C 
ATOM     13  O   UNL     1      -4.071   6.446  -8.390  0.00  0.00    +0.000 OA
ATOM     14  C   UNL     1      -4.820   7.811  -9.035  0.00  0.00    +0.000 C 
ENDROOT
BRANCH  12  15
ATOM     15  N   UNL     1      -2.441   5.690  -6.273  0.00  0.00    +0.000 N 
ATOM     16  C   UNL     1      -1.619   6.480  -5.393  0.00  0.00    +0.000 C 
ATOM     17  O   UNL     1      -1.098   7.442  -5.964  0.00  0.00    +0.000 OA
ATOM     18  H   UNL     1      -2.717   4.772  -5.904  0.00  0.00    +0.000 HD
BRANCH  16  19
ATOM     19  C   UNL     1      -1.319   6.351  -3.708  0.00  0.00    +0.000 C 
ATOM     20  C   UNL     1      -0.574   7.659  -3.111  0.00  0.00    +0.000 C 
ATOM     21  N   UNL     1      -0.451   7.725  -1.346  0.00  0.00    +0.000 NA
ATOM     22  C   UNL     1       0.291   8.859  -0.753  0.00  0.00    +0.000 C 
ATOM     23  C   UNL     1      -1.792   7.864  -0.479  0.00  0.00    +0.000 C 
ATOM     24  C   UNL     1      -3.505   8.494  -0.225  0.00  0.00    +0.000 C 
ATOM     25  C   UNL     1      -3.396   9.907   0.014  0.00  0.00    +0.000 A 
ATOM     26  C   UNL     1      -3.737  10.671   0.989  0.00  0.00    +0.000 A 
ATOM     27  N   UNL     1      -3.031  11.822   0.819  0.00  0.00    +0.000 N 
ATOM     28  C   UNL     1      -2.239  11.709  -0.325  0.00  0.00    +0.000 A 
ATOM     29  C   UNL     1      -1.192  12.545  -0.708  0.00  0.00    +0.000 A 
ATOM     30  C   UNL     1      -0.489  12.034  -1.790  0.00  0.00    +0.000 A 
ATOM     31  C   UNL     1      -0.867  10.706  -2.417  0.00  0.00    +0.000 A 
ATOM     32  C   UNL     1      -2.059   9.742  -2.017  0.00  0.00    +0.000 A 
ATOM     33  C   UNL     1      -2.609  10.509  -0.954  0.00  0.00    +0.000 A 
ATOM     34  C   UNL     1      -2.320   7.841  -1.823  0.00  0.00    +0.000 C 
ATOM     35  C   UNL     1      -2.381   6.394  -2.648  0.00  0.00    +0.000 C 
ATOM     36  H   UNL     1      -2.960  12.557   1.485  0.00  0.00    +0.000 HD
ENDBRANCH  16  19
ENDBRANCH  12  15
BRANCH  12  37
ATOM     37  C   UNL     1      -4.375   6.314  -5.105  0.00  0.00    +0.000 C 
ATOM     38  C   UNL     1      -5.161   5.176  -4.453  0.00  0.00    +0.000 C 
ATOM     39  C   UNL     1      -4.389   7.658  -4.320  0.00  0.00    +0.000 C 
ENDBRANCH  12  37
BRANCH  14  40
ATOM     40  O   UNL     1      -3.843   8.780  -9.391  0.00  0.00    +0.000 OA
ATOM     41  H   UNL     1      -4.099   9.148 -10.259  0.00  0.00    +0.000 HD
ENDBRANCH  14  40
BRANCH   8  42
ATOM     42  C   UNL     1      -6.707   6.103  -6.614  0.00  0.00    +0.000 C 
BRANCH  42  43
ATOM     43  C   UNL     1      -8.116   5.852  -6.208  0.00  0.00    +0.000 C 
ATOM     44  C   UNL     1      -8.601   4.615  -6.922  0.00  0.00    +0.000 C 
ATOM     45  C   UNL     1      -8.213   5.610  -4.706  0.00  0.00    +0.000 C 
ENDBRANCH  42  43
ENDBRANCH   8  42
TORSDOF 6
