REMARK  Name = Dihydralazine
REMARK  4 active torsions:
REMARK  status: ('A' for Active; 'I' for Inactive)
REMARK    1  A    between atoms: N_1  and  N_2
REMARK    2  A    between atoms: N_2  and  C_3
REMARK    3  A    between atoms: C_10  and  N_11
REMARK    4  A    between atoms: N_11  and  N_12
REMARK                            x       y       z     vdW  Elec       q    Type
REMARK                         _______ _______ _______ _____ _____    ______ ____
ROOT
ATOM      1  C   UNL     1       3.085  -1.128   0.712  0.00  0.00    +0.000 A 
ATOM      2  C   UNL     1       2.736  -2.492   0.746  0.00  0.00    +0.000 A 
ATOM      3  C   UNL     1       1.659  -3.006  -0.021  0.00  0.00    +0.000 A 
ATOM      4  C   UNL     1       1.334  -4.353  -0.080  0.00  0.00    +0.000 A 
ATOM      5  C   UNL     1       2.081  -5.244   0.651  0.00  0.00    +0.000 A 
ATOM      6  C   UNL     1       3.131  -4.772   1.432  0.00  0.00    +0.000 A 
ATOM      7  C   UNL     1       3.524  -3.404   1.519  0.00  0.00    +0.000 A 
ATOM      8  C   UNL     1       4.625  -2.876   2.250  0.00  0.00    +0.000 A 
ATOM      9  N   UNL     1       4.910  -1.553   2.168  0.00  0.00    +0.000 NA
ATOM     10  N   UNL     1       4.156  -0.683   1.393  0.00  0.00    +0.000 NA
ENDROOT
BRANCH   1  11
ATOM     11  N   UNL     1       2.387  -0.173  -0.094  0.00  0.00    +0.000 N 
ATOM     12  H   UNL     1       2.918   0.700  -0.051  0.00  0.00    +0.000 HD
BRANCH  11  13
ATOM     13  N   UNL     1       0.977  -0.048   0.059  0.00  0.00    +0.000 NA
ATOM     14  H   UNL     1       0.615   0.735  -0.490  0.00  0.00    +0.000 HD
ATOM     15  H   UNL     1       0.711   0.116   1.033  0.00  0.00    +0.000 HD
ENDBRANCH  11  13
ENDBRANCH   1  11
BRANCH   8  16
ATOM     16  N   UNL     1       5.524  -3.584   3.075  0.00  0.00    +0.000 N 
ATOM     17  H   UNL     1       6.249  -2.968   3.448  0.00  0.00    +0.000 HD
BRANCH  16  18
ATOM     18  N   UNL     1       5.549  -4.918   3.456  0.00  0.00    +0.000 NA
ATOM     19  H   UNL     1       5.063  -5.530   2.818  0.00  0.00    +0.000 HD
ATOM     20  H   UNL     1       5.136  -5.067   4.377  0.00  0.00    +0.000 HD
ENDBRANCH  16  18
ENDBRANCH   8  16
TORSDOF 4
