REMARK  Name = Dihydroergotamine
REMARK  7 active torsions:
REMARK  status: ('A' for Active; 'I' for Inactive)
REMARK    1  A    between atoms: C_9  and  C_10
REMARK    2  A    between atoms: C_10  and  C_11
REMARK    3  A    between atoms: C_20  and  C_21
REMARK    4  A    between atoms: C_20  and  N_22
REMARK    5  A    between atoms: C_23  and  C_25
REMARK    6  A    between atoms: N_27  and  C_28
REMARK    7  A    between atoms: C_45  and  O_46
REMARK                            x       y       z     vdW  Elec       q    Type
REMARK                         _______ _______ _______ _____ _____    ______ ____
ROOT
ATOM      1  C   UNL     1      -7.204  11.756  -5.804  0.00  0.00    +0.000 C 
ATOM      2  C   UNL     1      -8.062  12.631  -6.747  0.00  0.00    +0.000 C 
ATOM      3  C   UNL     1      -9.517  12.454  -6.343  0.00  0.00    +0.000 C 
ATOM      4  C   UNL     1      -9.516  11.623  -5.088  0.00  0.00    +0.000 C 
ATOM      5  N   UNL     1      -8.179  11.093  -4.973  0.00  0.00    +0.000 N 
ATOM      6  C   UNL     1      -7.962   9.770  -4.800  0.00  0.00    +0.000 C 
ATOM      7  O   UNL     1      -8.905   8.993  -4.879  0.00  0.00    +0.000 OA
ATOM      8  C   UNL     1      -6.497   9.340  -4.702  0.00  0.00    +0.000 C 
ATOM      9  N   UNL     1      -5.620  10.560  -5.114  0.00  0.00    +0.000 N 
ATOM     10  C   UNL     1      -4.214  10.525  -5.059  0.00  0.00    +0.000 C 
ATOM     11  O   UNL     1      -3.550  11.553  -5.048  0.00  0.00    +0.000 OA
ATOM     12  C   UNL     1      -3.758   9.104  -4.826  0.00  0.00    +0.000 C 
ATOM     13  C   UNL     1      -3.103   9.579  -3.295  0.00  0.00    +0.000 C 
ATOM     14  O   UNL     1      -4.788   9.397  -6.335  0.00  0.00    +0.000 OA
ATOM     15  C   UNL     1      -5.881  10.730  -6.467  0.00  0.00    +0.000 C 
ENDROOT
BRANCH  12  16
ATOM     16  N   UNL     1      -2.425   8.023  -4.512  0.00  0.00    +0.000 N 
ATOM     17  C   UNL     1      -2.541   6.859  -3.729  0.00  0.00    +0.000 C 
ATOM     18  O   UNL     1      -3.573   6.205  -3.802  0.00  0.00    +0.000 OA
ATOM     19  H   UNL     1      -1.817   8.326  -3.703  0.00  0.00    +0.000 HD
BRANCH  17  20
ATOM     20  C   UNL     1      -1.279   6.614  -2.494  0.00  0.00    +0.000 C 
ATOM     21  C   UNL     1       0.047   7.165  -2.841  0.00  0.00    +0.000 C 
ATOM     22  N   UNL     1       1.017   6.642  -1.866  0.00  0.00    +0.000 NA
ATOM     23  C   UNL     1       2.310   7.182  -2.200  0.00  0.00    +0.000 C 
ATOM     24  C   UNL     1       0.766   6.971  -0.332  0.00  0.00    +0.000 C 
ATOM     25  C   UNL     1       1.248   8.062   0.374  0.00  0.00    +0.000 C 
ATOM     26  C   UNL     1       2.340   8.945   0.502  0.00  0.00    +0.000 A 
ATOM     27  C   UNL     1       2.057   9.845  -0.524  0.00  0.00    +0.000 A 
ATOM     28  N   UNL     1       3.317  10.252  -0.439  0.00  0.00    +0.000 N 
ATOM     29  C   UNL     1       3.251  11.139   0.534  0.00  0.00    +0.000 A 
ATOM     30  C   UNL     1       3.658  12.447   0.190  0.00  0.00    +0.000 A 
ATOM     31  C   UNL     1       2.911  13.114   1.004  0.00  0.00    +0.000 A 
ATOM     32  C   UNL     1       1.546  12.047   1.508  0.00  0.00    +0.000 A 
ATOM     33  C   UNL     1       0.669  10.225   1.440  0.00  0.00    +0.000 A 
ATOM     34  C   UNL     1       2.225  10.155   1.318  0.00  0.00    +0.000 A 
ATOM     35  C   UNL     1      -0.204   8.560   0.592  0.00  0.00    +0.000 C 
ATOM     36  C   UNL     1      -1.333   7.358  -0.742  0.00  0.00    +0.000 C 
ATOM     37  H   UNL     1       4.122   9.713  -0.254  0.00  0.00    +0.000 HD
ENDBRANCH  17  20
ENDBRANCH  12  16
BRANCH  15  38
ATOM     38  O   UNL     1      -5.246  11.786  -7.234  0.00  0.00    +0.000 OA
ATOM     39  H   UNL     1      -5.864  12.236  -7.860  0.00  0.00    +0.000 HD
ENDBRANCH  15  38
BRANCH   8  40
ATOM     40  C   UNL     1      -5.967   8.933  -3.371  0.00  0.00    +0.000 C 
BRANCH  40  41
ATOM     41  C   UNL     1      -6.697   7.937  -2.608  0.00  0.00    +0.000 A 
ATOM     42  C   UNL     1      -7.819   7.301  -3.086  0.00  0.00    +0.000 A 
ATOM     43  C   UNL     1      -8.627   6.621  -2.221  0.00  0.00    +0.000 A 
ATOM     44  C   UNL     1      -8.133   6.280  -0.983  0.00  0.00    +0.000 A 
ATOM     45  C   UNL     1      -6.927   6.804  -0.544  0.00  0.00    +0.000 A 
ATOM     46  C   UNL     1      -6.199   7.636  -1.358  0.00  0.00    +0.000 A 
ENDBRANCH  40  41
ENDBRANCH   8  40
TORSDOF 5
