REMARK  Name = Dihydrostreptomycin
REMARK  19 active torsions:
REMARK  status: ('A' for Active; 'I' for Inactive)
REMARK    1  A    between atoms: C_1  and  N_2
REMARK    2  A    between atoms: N_2  and  C_3
REMARK    3  A    between atoms: C_4  and  O_5
REMARK    4  A    between atoms: C_6  and  O_7
REMARK    5  A    between atoms: C_8  and  C_9
REMARK    6  A    between atoms: C_9  and  O_10
REMARK    7  A    between atoms: C_12  and  O_13
REMARK    8  A    between atoms: O_13  and  C_14
REMARK    9  A    between atoms: C_15  and  O_16
REMARK   10  A    between atoms: O_16  and  C_17
REMARK   11  A    between atoms: C_18  and  O_19
REMARK   12  A    between atoms: C_20  and  O_21
REMARK   13  A    between atoms: C_22  and  N_23
REMARK   14  A    between atoms: C_27  and  O_28
REMARK   15  A    between atoms: C_29  and  N_30
REMARK   16  A    between atoms: C_35  and  C_36
REMARK   17  A    between atoms: C_37  and  O_38
REMARK   18  A    between atoms: C_37  and  C_39
REMARK   19  A    between atoms: C_39  and  O_40
REMARK                            x       y       z     vdW  Elec       q    Type
REMARK                         _______ _______ _______ _____ _____    ______ ____
ROOT
ATOM      1  O   UNL     1       1.791   3.068  -3.999  0.00  0.00    +0.000 OA
ENDROOT
BRANCH   1   2
ATOM      2  C   UNL     1       2.247   2.479  -2.832  0.00  0.00    +0.000 C 
ATOM      3  C   UNL     1       1.427   2.421  -1.529  0.00  0.00    +0.000 C 
ATOM      4  C   UNL     1       2.149   1.506  -0.534  0.00  0.00    +0.000 C 
ATOM      5  C   UNL     1       2.434   0.092  -1.075  0.00  0.00    +0.000 C 
ATOM      6  C   UNL     1       3.127   0.194  -2.473  0.00  0.00    +0.000 C 
ATOM      7  C   UNL     1       2.299   1.053  -3.419  0.00  0.00    +0.000 C 
BRANCH   7   8
ATOM      8  N   UNL     1       2.779   1.005  -4.845  0.00  0.00    +0.000 N 
ATOM      9  C   UNL     1       2.177   1.593  -5.935  0.00  0.00    +0.000 C 
ATOM     10  N   UNL     1       0.849   1.866  -5.880  0.00  0.00    +0.000 N 
ATOM     11  N   UNL     1       2.807   1.999  -6.985  0.00  0.00    +0.000 NA
ATOM     12  H   UNL     1       3.783   0.912  -4.922  0.00  0.00    +0.000 HD
ATOM     13  H   UNL     1       0.575   2.121  -4.939  0.00  0.00    +0.000 HD
ATOM     14  H   UNL     1       0.709   2.738  -6.407  0.00  0.00    +0.000 HD
ATOM     15  H   UNL     1       3.795   1.772  -6.909  0.00  0.00    +0.000 HD
ENDBRANCH   7   8
BRANCH   5  16
ATOM     16  N   UNL     1       3.320  -0.692  -0.199  0.00  0.00    +0.000 N 
ATOM     17  C   UNL     1       3.342  -0.846   1.139  0.00  0.00    +0.000 C 
ATOM     18  N   UNL     1       2.483  -0.191   1.913  0.00  0.00    +0.000 N 
ATOM     19  N   UNL     1       4.171  -1.645   1.750  0.00  0.00    +0.000 NA
ATOM     20  H   UNL     1       3.874  -1.365  -0.728  0.00  0.00    +0.000 HD
ATOM     21  H   UNL     1       2.167   0.724   1.597  0.00  0.00    +0.000 HD
ATOM     22  H   UNL     1       2.773  -0.135   2.882  0.00  0.00    +0.000 HD
ATOM     23  H   UNL     1       4.752  -2.130   1.078  0.00  0.00    +0.000 HD
ENDBRANCH   5  16
BRANCH   3  24
ATOM     24  O   UNL     1       1.342   3.679  -0.868  0.00  0.00    +0.000 OA
ATOM     25  H   UNL     1       2.187   3.894  -0.436  0.00  0.00    +0.000 HD
ENDBRANCH   3  24
BRANCH   4  26
ATOM     26  O   UNL     1       1.320   1.512   0.639  0.00  0.00    +0.000 OA
ATOM     27  H   UNL     1       0.549   0.934   0.478  0.00  0.00    +0.000 HD
ENDBRANCH   4  26
BRANCH   6  28
ATOM     28  O   UNL     1       3.295  -1.115  -3.021  0.00  0.00    +0.000 OA
ATOM     29  H   UNL     1       2.426  -1.405  -3.359  0.00  0.00    +0.000 HD
ENDBRANCH   6  28
ENDBRANCH   1   2
BRANCH   1  31
ATOM     30  C   UNL     1       2.258   5.392  -3.784  0.00  0.00    +0.000 C 
ATOM     31  C   UNL     1       1.339   4.317  -4.245  0.00  0.00    +0.000 C 
ATOM     32  O   UNL     1       1.026   4.529  -5.644  0.00  0.00    +0.000 OA
ATOM     33  C   UNL     1       1.784   5.650  -6.116  0.00  0.00    +0.000 C 
ATOM     34  C   UNL     1       0.846   6.856  -6.216  0.00  0.00    +0.000 C 
ATOM     35  C   UNL     1       2.928   5.790  -5.108  0.00  0.00    +0.000 C 
BRANCH  35  36
ATOM     36  O   UNL     1       3.486   7.103  -5.057  0.00  0.00    +0.000 OA
ATOM     37  H   UNL     1       2.772   7.679  -4.733  0.00  0.00    +0.000 HD
ENDBRANCH  35  36
BRANCH  30  38
ATOM     38  O   UNL     1       1.423   6.428  -3.295  0.00  0.00    +0.000 OA
BRANCH  38  44
ATOM     39  C   UNL     1       0.114   7.336  -1.500  0.00  0.00    +0.000 C 
ATOM     40  C   UNL     1      -1.027   7.813  -2.428  0.00  0.00    +0.000 C 
ATOM     41  C   UNL     1      -2.017   6.731  -2.904  0.00  0.00    +0.000 C 
ATOM     42  C   UNL     1      -1.257   5.515  -3.342  0.00  0.00    +0.000 C 
ATOM     43  O   UNL     1      -0.355   5.136  -2.293  0.00  0.00    +0.000 OA
ATOM     44  C   UNL     1       0.718   6.077  -2.096  0.00  0.00    +0.000 C 
BRANCH  39  46
ATOM     45  C   UNL     1       1.552   9.117  -2.418  0.00  0.00    +0.000 C 
ATOM     46  N   UNL     1       1.167   8.358  -1.228  0.00  0.00    +0.000 NA
ATOM     47  H   UNL     1       0.786   9.019  -0.553  0.00  0.00    +0.000 HD
ENDBRANCH  39  46
BRANCH  41  48
ATOM     48  O   UNL     1      -2.763   7.228  -4.022  0.00  0.00    +0.000 OA
ATOM     49  H   UNL     1      -2.128   7.515  -4.708  0.00  0.00    +0.000 HD
ENDBRANCH  41  48
BRANCH  40  50
ATOM     50  O   UNL     1      -1.739   8.864  -1.776  0.00  0.00    +0.000 OA
ATOM     51  H   UNL     1      -2.293   8.440  -1.098  0.00  0.00    +0.000 HD
ENDBRANCH  40  50
BRANCH  42  52
ATOM     52  C   UNL     1      -2.109   4.350  -3.903  0.00  0.00    +0.000 C 
BRANCH  52  53
ATOM     53  O   UNL     1      -2.476   3.388  -2.928  0.00  0.00    +0.000 OA
ATOM     54  H   UNL     1      -3.222   3.758  -2.430  0.00  0.00    +0.000 HD
ENDBRANCH  52  53
ENDBRANCH  42  52
ENDBRANCH  38  44
ENDBRANCH  30  38
BRANCH  35  55
ATOM     55  C   UNL     1       4.079   4.830  -5.466  0.00  0.00    +0.000 C 
BRANCH  55  56
ATOM     56  O   UNL     1       5.116   4.941  -4.488  0.00  0.00    +0.000 OA
ATOM     57  H   UNL     1       5.320   5.898  -4.456  0.00  0.00    +0.000 HD
ENDBRANCH  55  56
ENDBRANCH  35  55
ENDBRANCH   1  31
TORSDOF 17
