REMARK  Name = Dihydrotachysterol
REMARK  12 active torsions:
REMARK  status: ('A' for Active; 'I' for Inactive)
REMARK    1  A    between atoms: C_1  and  C_2
REMARK    2  A    between atoms: C_2  and  C_3
REMARK    3  A    between atoms: C_2  and  C_4
REMARK    4  A    between atoms: C_4  and  C_5
REMARK    5  A    between atoms: C_4  and  C_6
REMARK    6  A    between atoms: C_7  and  C_8
REMARK    7  A    between atoms: C_8  and  C_9
REMARK    8  A    between atoms: C_8  and  C_10
REMARK    9  A    between atoms: C_20  and  C_21
REMARK   10  A    between atoms: C_22  and  C_23
REMARK   11  A    between atoms: C_26  and  O_27
REMARK   12  A    between atoms: C_30  and  C_31
REMARK                            x       y       z     vdW  Elec       q    Type
REMARK                         _______ _______ _______ _____ _____    ______ ____
ROOT
ATOM      1  C   UNL     1       7.222   0.109   4.012  0.00  0.00    +0.000 C 
ATOM      2  C   UNL     1       7.064   1.480   4.719  0.00  0.00    +0.000 C 
ATOM      3  C   UNL     1       6.553   1.206   6.133  0.00  0.00    +0.000 C 
ATOM      4  C   UNL     1       6.838  -0.283   6.359  0.00  0.00    +0.000 C 
ATOM      5  C   UNL     1       6.158  -1.082   7.457  0.00  0.00    +0.000 C 
ATOM      6  C   UNL     1       6.595  -2.533   7.444  0.00  0.00    +0.000 C 
ATOM      7  C   UNL     1       6.466  -3.196   6.063  0.00  0.00    +0.000 C 
ATOM      8  C   UNL     1       7.079  -2.342   4.939  0.00  0.00    +0.000 C 
ATOM      9  C   UNL     1       6.514  -0.908   4.981  0.00  0.00    +0.000 C 
ATOM     10  C   UNL     1       4.986  -1.011   4.795  0.00  0.00    +0.000 C 
ATOM     11  C   UNL     1       5.259  -0.548   8.299  0.00  0.00    +0.000 C 
ENDROOT
BRANCH  11  12
ATOM     12  C   UNL     1       4.571  -1.219   9.386  0.00  0.00    +0.000 C 
ATOM     13  C   UNL     1       3.705  -0.631  10.234  0.00  0.00    +0.000 C 
ATOM     14  C   UNL     1       3.274   0.820  10.131  0.00  0.00    +0.000 C 
ATOM     15  C   UNL     1       1.758   0.890   9.942  0.00  0.00    +0.000 C 
ATOM     16  C   UNL     1       1.026   0.192  11.087  0.00  0.00    +0.000 C 
ATOM     17  C   UNL     1       1.470  -1.272  11.214  0.00  0.00    +0.000 C 
ATOM     18  C   UNL     1       3.003  -1.397  11.356  0.00  0.00    +0.000 C 
ATOM     19  C   UNL     1       3.452  -0.865  12.723  0.00  0.00    +0.000 C 
BRANCH  15  20
ATOM     20  O   UNL     1       1.384   0.285   8.699  0.00  0.00    +0.000 OA
ATOM     21  H   UNL     1       1.761  -0.615   8.684  0.00  0.00    +0.000 HD
ENDBRANCH  15  20
ENDBRANCH  11  12
BRANCH   1  22
ATOM     22  C   UNL     1       6.812   0.165   2.507  0.00  0.00    +0.000 C 
ATOM     23  C   UNL     1       7.454   1.338   1.762  0.00  0.00    +0.000 C 
BRANCH  22  25
ATOM     24  C   UNL     1       4.620  -0.024   1.258  0.00  0.00    +0.000 C 
ATOM     25  C   UNL     1       5.336   0.343   2.312  0.00  0.00    +0.000 C 
BRANCH  24  26
ATOM     26  C   UNL     1       3.108   0.022   1.311  0.00  0.00    +0.000 C 
ATOM     27  C   UNL     1       2.588  -1.191   2.099  0.00  0.00    +0.000 C 
BRANCH  26  29
ATOM     28  C   UNL     1       1.019   0.069  -0.122  0.00  0.00    +0.000 C 
ATOM     29  C   UNL     1       2.547   0.073  -0.118  0.00  0.00    +0.000 C 
ATOM     30  C   UNL     1       3.053   1.321  -0.855  0.00  0.00    +0.000 C 
ENDBRANCH  26  29
ENDBRANCH  24  26
ENDBRANCH  22  25
ENDBRANCH   1  22
TORSDOF 6
