REMARK  Name = Diiodohydroxyquinoline
REMARK  1 active torsions:
REMARK  status: ('A' for Active; 'I' for Inactive)
REMARK    1  A    between atoms: O_1  and  C_2
REMARK                            x       y       z     vdW  Elec       q    Type
REMARK                         _______ _______ _______ _____ _____    ______ ____
ROOT
ATOM      1  C   UNL     1       2.456  -0.085   0.015  0.00  0.00    +0.000 A 
ATOM      2  C   UNL     1       3.163   1.121   0.059  0.00  0.00    +0.000 A 
ATOM      3  N   UNL     1       2.480   2.287   0.049  0.00  0.00    +0.000 NA
ATOM      4  C   UNL     1       3.184   3.435  -0.086  0.00  0.00    +0.000 A 
ATOM      5  C   UNL     1       4.561   3.486  -0.160  0.00  0.00    +0.000 A 
ATOM      6  C   UNL     1       5.258   2.305   0.023  0.00  0.00    +0.000 A 
ATOM      7  C   UNL     1       4.583   1.072   0.062  0.00  0.00    +0.000 A 
ATOM      8  C   UNL     1       5.230  -0.185   0.033  0.00  0.00    +0.000 A 
ATOM      9  I   UNL     1       7.334  -0.401  -0.018  0.00  0.00    +0.000 I 
ATOM     10  C   UNL     1       4.497  -1.368  -0.047  0.00  0.00    +0.000 A 
ATOM     11  C   UNL     1       3.105  -1.318  -0.054  0.00  0.00    +0.000 A 
ATOM     12  I   UNL     1       2.067  -3.125  -0.206  0.00  0.00    +0.000 I 
ENDROOT
BRANCH   1  13
ATOM     13  O   UNL     1       1.076  -0.042  -0.002  0.00  0.00    +0.000 OA
ATOM     14  H   UNL     1       0.840   0.907   0.042  0.00  0.00    +0.000 HD
ENDBRANCH   1  13
TORSDOF 1
