REMARK  Name = Diloxanide furoate
REMARK  6 active torsions:
REMARK  status: ('A' for Active; 'I' for Inactive)
REMARK    1  A    between atoms: C_1  and  N_2
REMARK    2  A    between atoms: N_2  and  C_8
REMARK    3  A    between atoms: C_3  and  C_5
REMARK    4  A    between atoms: C_11  and  O_12
REMARK    5  A    between atoms: O_12  and  C_13
REMARK    6  A    between atoms: C_13  and  C_15
REMARK                            x       y       z     vdW  Elec       q    Type
REMARK                         _______ _______ _______ _____ _____    ______ ____
ROOT
ATOM      1  C   UNL     1       3.080   1.108  -0.403  0.00  0.00    +0.000 A 
ATOM      2  C   UNL     1       4.241   1.148  -1.195  0.00  0.00    +0.000 A 
ATOM      3  C   UNL     1       4.943   2.357  -1.407  0.00  0.00    +0.000 A 
ATOM      4  C   UNL     1       4.454   3.550  -0.862  0.00  0.00    +0.000 A 
ATOM      5  C   UNL     1       3.310   3.501  -0.077  0.00  0.00    +0.000 A 
ATOM      6  C   UNL     1       2.623   2.309   0.130  0.00  0.00    +0.000 A 
ENDROOT
BRANCH   1   8
ATOM      7  C   UNL     1       0.926  -0.033  -0.004  0.00  0.00    +0.000 C 
ATOM      8  N   UNL     1       2.395  -0.113  -0.068  0.00  0.00    +0.000 N 
ATOM      9  C   UNL     1       3.145  -1.262   0.269  0.00  0.00    +0.000 C 
ATOM     10  O   UNL     1       4.381  -1.235   0.314  0.00  0.00    +0.000 OA
BRANCH   9  11
ATOM     11  C   UNL     1       2.377  -2.524   0.704  0.00  0.00    +0.000 C 
ATOM     12 CL   UNL     1       1.423  -3.176  -0.654  0.00  0.00    +0.000 Cl
ATOM     13 CL   UNL     1       3.495  -3.809   1.247  0.00  0.00    +0.000 Cl
ENDBRANCH   9  11
ENDBRANCH   1   8
BRANCH   4  14
ATOM     14  O   UNL     1       5.116   4.776  -1.166  0.00  0.00    +0.000 OA
BRANCH  14  15
ATOM     15  C   UNL     1       4.671   6.032  -0.695  0.00  0.00    +0.000 C 
ATOM     16  O   UNL     1       3.728   6.223   0.076  0.00  0.00    +0.000 OA
BRANCH  15  17
ATOM     17  C   UNL     1       5.438   7.114  -1.242  0.00  0.00    +0.000 A 
ATOM     18  C   UNL     1       5.853   7.413  -2.526  0.00  0.00    +0.000 A 
ATOM     19  C   UNL     1       6.459   8.694  -2.470  0.00  0.00    +0.000 A 
ATOM     20  C   UNL     1       6.384   9.101  -1.159  0.00  0.00    +0.000 A 
ATOM     21  O   UNL     1       5.752   8.162  -0.413  0.00  0.00    +0.000 OA
ENDBRANCH  15  17
ENDBRANCH  14  15
ENDBRANCH   4  14
TORSDOF 5
