REMARK  Name = Diltiazem
REMARK  11 active torsions:
REMARK  status: ('A' for Active; 'I' for Inactive)
REMARK    1  A    between atoms: C_1  and  O_2
REMARK    2  A    between atoms: O_2  and  C_3
REMARK    3  A    between atoms: C_6  and  C_9
REMARK    4  A    between atoms: N_17  and  C_18
REMARK    5  A    between atoms: C_18  and  C_19
REMARK    6  A    between atoms: C_19  and  N_20
REMARK    7  A    between atoms: N_20  and  C_21
REMARK    8  A    between atoms: N_20  and  C_22
REMARK    9  A    between atoms: C_25  and  O_26
REMARK   10  A    between atoms: O_26  and  C_27
REMARK   11  A    between atoms: C_27  and  C_28
REMARK                            x       y       z     vdW  Elec       q    Type
REMARK                         _______ _______ _______ _____ _____    ______ ____
ROOT
ATOM      1  C   UNL     1       5.468  -0.253  -4.671  0.00  0.00    +0.000 C 
ATOM      2  S   UNL     1       6.318   1.746  -4.253  0.00  0.00    +0.000 S 
ATOM      3  C   UNL     1       5.751   3.243  -5.445  0.00  0.00    +0.000 A 
ATOM      4  C   UNL     1       5.447   2.949  -6.775  0.00  0.00    +0.000 A 
ATOM      5  C   UNL     1       5.057   3.900  -7.745  0.00  0.00    +0.000 A 
ATOM      6  C   UNL     1       5.002   5.239  -7.462  0.00  0.00    +0.000 A 
ATOM      7  C   UNL     1       5.308   5.614  -6.162  0.00  0.00    +0.000 A 
ATOM      8  C   UNL     1       5.691   4.642  -5.155  0.00  0.00    +0.000 A 
ATOM      9  N   UNL     1       5.287   1.621  -7.104  0.00  0.00    +0.000 N 
ATOM     10  C   UNL     1       4.366   0.980  -6.321  0.00  0.00    +0.000 C 
ATOM     11  O   UNL     1       3.462   1.585  -5.755  0.00  0.00    +0.000 OA
ATOM     12  C   UNL     1       4.706  -0.441  -6.034  0.00  0.00    +0.000 C 
ENDROOT
BRANCH   1  16
ATOM     13  C   UNL     1       3.091  -0.475  -1.095  0.00  0.00    +0.000 A 
ATOM     14  C   UNL     1       4.260  -1.241  -1.124  0.00  0.00    +0.000 A 
ATOM     15  C   UNL     1       5.056  -1.281  -2.289  0.00  0.00    +0.000 A 
ATOM     16  C   UNL     1       4.626  -0.594  -3.435  0.00  0.00    +0.000 A 
ATOM     17  C   UNL     1       3.333  -0.090  -3.423  0.00  0.00    +0.000 A 
ATOM     18  C   UNL     1       2.628   0.085  -2.264  0.00  0.00    +0.000 A 
BRANCH  13  20
ATOM     19  C   UNL     1       1.058  -0.121   0.003  0.00  0.00    +0.000 C 
ATOM     20  O   UNL     1       2.476  -0.260   0.104  0.00  0.00    +0.000 OA
ENDBRANCH  13  20
ENDBRANCH   1  16
BRANCH   9  21
ATOM     21  C   UNL     1       6.131   0.993  -8.075  0.00  0.00    +0.000 C 
BRANCH  21  22
ATOM     22  C   UNL     1       6.866   1.925  -9.012  0.00  0.00    +0.000 C 
BRANCH  22  23
ATOM     23  N   UNL     1       7.453   1.264 -10.174  0.00  0.00    +0.000 NA
ATOM     24  C   UNL     1       6.397   0.588 -10.944  0.00  0.00    +0.000 C 
ATOM     25  C   UNL     1       8.025   2.349 -10.985  0.00  0.00    +0.000 C 
ENDBRANCH  22  23
ENDBRANCH  21  22
ENDBRANCH   9  21
BRANCH  12  26
ATOM     26  O   UNL     1       3.494  -1.233  -6.084  0.00  0.00    +0.000 OA
BRANCH  26  27
ATOM     27  C   UNL     1       2.727  -1.340  -7.220  0.00  0.00    +0.000 C 
ATOM     28  C   UNL     1       3.436  -1.323  -8.554  0.00  0.00    +0.000 C 
ATOM     29  O   UNL     1       1.534  -1.532  -7.173  0.00  0.00    +0.000 OA
ENDBRANCH  26  27
ENDBRANCH  12  26
TORSDOF 7
