REMARK  Name = Dimazole
REMARK  10 active torsions:
REMARK  status: ('A' for Active; 'I' for Inactive)
REMARK    1  A    between atoms: C_1  and  C_2
REMARK    2  A    between atoms: C_2  and  N_3
REMARK    3  A    between atoms: N_3  and  C_4
REMARK    4  A    between atoms: N_3  and  C_6
REMARK    5  A    between atoms: C_4  and  C_5
REMARK    6  A    between atoms: C_6  and  C_7
REMARK    7  A    between atoms: C_7  and  O_8
REMARK    8  A    between atoms: O_8  and  C_9
REMARK    9  A    between atoms: N_18  and  C_19
REMARK   10  A    between atoms: N_18  and  C_20
REMARK                            x       y       z     vdW  Elec       q    Type
REMARK                         _______ _______ _______ _____ _____    ______ ____
ROOT
ATOM      1  C   UNL     1       7.027  -3.102  -2.702  0.00  0.00    +0.000 A 
ATOM      2  C   UNL     1       8.049  -3.832  -2.097  0.00  0.00    +0.000 A 
ATOM      3  C   UNL     1       8.685  -4.834  -2.845  0.00  0.00    +0.000 A 
ATOM      4  C   UNL     1       8.355  -5.100  -4.170  0.00  0.00    +0.000 A 
ATOM      5  C   UNL     1       7.353  -4.318  -4.780  0.00  0.00    +0.000 A 
ATOM      6  C   UNL     1       6.700  -3.320  -4.041  0.00  0.00    +0.000 A 
ATOM      7  N   UNL     1       9.064  -6.131  -4.761  0.00  0.00    +0.000 NA
ATOM      8  C   UNL     1       9.926  -6.673  -3.917  0.00  0.00    +0.000 A 
ATOM      9  S   UNL     1       9.925  -5.905  -2.362  0.00  0.00    +0.000 S 
ATOM     10  N   UNL     1      10.733  -7.725  -4.234  0.00  0.00    +0.000 N 
ATOM     11  C   UNL     1      10.670  -8.318  -5.561  0.00  0.00    +0.000 C 
ATOM     12  C   UNL     1      11.672  -8.329  -3.303  0.00  0.00    +0.000 C 
ENDROOT
BRANCH   1  13
ATOM     13  O   UNL     1       6.437  -2.147  -1.910  0.00  0.00    +0.000 OA
BRANCH  13  14
ATOM     14  C   UNL     1       5.004  -2.196  -1.958  0.00  0.00    +0.000 C 
BRANCH  14  15
ATOM     15  C   UNL     1       4.400  -1.118  -1.030  0.00  0.00    +0.000 C 
BRANCH  15  16
ATOM     16  N   UNL     1       2.904  -1.058  -1.029  0.00  0.00    +0.000 NA
BRANCH  16  18
ATOM     17  C   UNL     1       0.978   0.022   0.252  0.00  0.00    +0.000 C 
ATOM     18  C   UNL     1       2.477  -0.044  -0.036  0.00  0.00    +0.000 C 
ENDBRANCH  16  18
BRANCH  16  19
ATOM     19  C   UNL     1       2.414  -0.789  -2.396  0.00  0.00    +0.000 C 
ATOM     20  C   UNL     1       0.916  -0.909  -2.632  0.00  0.00    +0.000 C 
ENDBRANCH  16  19
ENDBRANCH  15  16
ENDBRANCH  14  15
ENDBRANCH  13  14
ENDBRANCH   1  13
TORSDOF 6
