REMARK  Name = Dimenhydrinate
REMARK  10 active torsions:
REMARK  status: ('A' for Active; 'I' for Inactive)
REMARK    1  A    between atoms: C_1  and  N_2
REMARK    2  A    between atoms: N_11  and  C_12
REMARK    3  A    between atoms: C_15  and  N_16
REMARK    4  A    between atoms: N_16  and  C_17
REMARK    5  A    between atoms: N_16  and  C_18
REMARK    6  A    between atoms: C_18  and  C_19
REMARK    7  A    between atoms: C_19  and  O_20
REMARK    8  A    between atoms: O_20  and  C_21
REMARK    9  A    between atoms: C_21  and  C_22
REMARK   10  A    between atoms: C_21  and  C_28
REMARK                            x       y       z     vdW  Elec       q    Type
REMARK                         _______ _______ _______ _____ _____    ______ ____
ROOT
ATOM      1  C   UNL     1       1.513   0.197  -1.300  0.00  0.00    +0.000 C 
ATOM      2  N   UNL     1       2.916   0.010  -1.456  0.00  0.00    +0.000 N 
ATOM      3  C   UNL     1       3.487  -1.265  -1.530  0.00  0.00    +0.000 A 
ATOM      4  C   UNL     1       4.845  -1.382  -1.552  0.00  0.00    +0.000 A 
ATOM      5  N   UNL     1       5.131  -2.810  -1.407  0.00  0.00    +0.000 NA
ATOM      6  C   UNL     1       3.968  -3.417  -1.176  0.00  0.00    +0.000 A 
ATOM      7 CL   UNL     1       3.376  -4.886  -0.420  0.00  0.00    +0.000 Cl
ATOM      8  N   UNL     1       2.955  -2.533  -1.256  0.00  0.00    +0.000 N 
ATOM      9  C   UNL     1       5.704  -0.066  -1.264  0.00  0.00    +0.000 A 
ATOM     10  O   UNL     1       6.903  -0.036  -1.208  0.00  0.00    +0.000 OA
ATOM     11  N   UNL     1       4.956   1.117  -0.891  0.00  0.00    +0.000 N 
ATOM     12  C   UNL     1       5.520   2.401  -0.312  0.00  0.00    +0.000 C 
ATOM     13  C   UNL     1       3.648   1.201  -1.133  0.00  0.00    +0.000 A 
ATOM     14  O   UNL     1       2.996   2.273  -0.982  0.00  0.00    +0.000 OA
ATOM     15  H   UNL     1       2.147  -2.833  -0.718  0.00  0.00    +0.000 HD
ENDROOT
TORSDOF 0
REMARK  Name = Dimenhydrinate
REMARK  10 active torsions:
REMARK  status: ('A' for Active; 'I' for Inactive)
REMARK    1  A    between atoms: C_1  and  N_2
REMARK    2  A    between atoms: N_11  and  C_12
REMARK    3  A    between atoms: C_15  and  N_16
REMARK    4  A    between atoms: N_16  and  C_17
REMARK    5  A    between atoms: N_16  and  C_18
REMARK    6  A    between atoms: C_18  and  C_19
REMARK    7  A    between atoms: C_19  and  O_20
REMARK    8  A    between atoms: O_20  and  C_21
REMARK    9  A    between atoms: C_21  and  C_22
REMARK   10  A    between atoms: C_21  and  C_28
REMARK                            x       y       z     vdW  Elec       q    Type
REMARK                         _______ _______ _______ _____ _____    ______ ____
ROOT
ATOM      1  C   UNL     2       6.368  -2.570   0.943  0.00  0.00    +0.000 C 
ENDROOT
BRANCH   1   2
ATOM      2  C   UNL     2       6.986  -1.621   1.931  0.00  0.00    +0.000 A 
ATOM      3  C   UNL     2       6.814  -0.245   1.766  0.00  0.00    +0.000 A 
ATOM      4  C   UNL     2       7.047   0.669   2.759  0.00  0.00    +0.000 A 
ATOM      5  C   UNL     2       7.567   0.200   3.941  0.00  0.00    +0.000 A 
ATOM      6  C   UNL     2       7.833  -1.159   4.110  0.00  0.00    +0.000 A 
ATOM      7  C   UNL     2       7.510  -2.068   3.126  0.00  0.00    +0.000 A 
ENDBRANCH   1   2
BRANCH   1   8
ATOM      8  C   UNL     2       6.978  -4.015   0.927  0.00  0.00    +0.000 A 
ATOM      9  C   UNL     2       8.278  -4.302   1.339  0.00  0.00    +0.000 A 
ATOM     10  C   UNL     2       8.687  -5.618   1.593  0.00  0.00    +0.000 A 
ATOM     11  C   UNL     2       7.861  -6.698   1.296  0.00  0.00    +0.000 A 
ATOM     12  C   UNL     2       6.676  -6.454   0.649  0.00  0.00    +0.000 A 
ATOM     13  C   UNL     2       6.330  -5.127   0.405  0.00  0.00    +0.000 A 
ENDBRANCH   1   8
BRANCH   1  14
ATOM     14  O   UNL     2       4.869  -2.529   1.243  0.00  0.00    +0.000 OA
BRANCH  14  15
ATOM     15  C   UNL     2       4.118  -1.267   1.383  0.00  0.00    +0.000 C 
BRANCH  15  16
ATOM     16  C   UNL     2       2.478  -1.293   1.419  0.00  0.00    +0.000 C 
BRANCH  16  18
ATOM     17  C   UNL     2       0.212   0.068   1.034  0.00  0.00    +0.000 C 
ATOM     18  N   UNL     2       1.689  -0.034   1.418  0.00  0.00    +0.000 NA
ATOM     19  C   UNL     2       2.472   1.085   1.918  0.00  0.00    +0.000 C 
ENDBRANCH  16  18
ENDBRANCH  15  16
ENDBRANCH  14  15
ENDBRANCH   1  14
TORSDOF 6
