REMARK  Name = Dimethyl sulfoxide
REMARK  2 active torsions:
REMARK  status: ('A' for Active; 'I' for Inactive)
REMARK    1  A    between atoms: C_1  and  S_2
REMARK    2  A    between atoms: S_2  and  C_3
REMARK                            x       y       z     vdW  Elec       q    Type
REMARK                         _______ _______ _______ _____ _____    ______ ____
ROOT
ATOM      1  C   UNL     1       1.058  -0.120   0.042  0.00  0.00    +0.000 C 
ATOM      2  S   UNL     1       2.857   0.018   0.160  0.00  0.00    +0.000 S 
ATOM      3  C   UNL     1       3.289  -1.513  -0.699  0.00  0.00    +0.000 C 
ATOM      4  O   UNL     1       3.276   1.160  -0.722  0.00  0.00    +0.000 OA
ENDROOT
TORSDOF 0
