REMARK  Name = Dimercaptosuccinic acid
REMARK  7 active torsions:
REMARK  status: ('A' for Active; 'I' for Inactive)
REMARK    1  A    between atoms: O_1  and  C_2
REMARK    2  A    between atoms: C_2  and  C_4
REMARK    3  A    between atoms: C_4  and  S_5
REMARK    4  A    between atoms: C_4  and  C_6
REMARK    5  A    between atoms: C_6  and  S_7
REMARK    6  A    between atoms: C_6  and  C_8
REMARK    7  A    between atoms: C_8  and  O_9
REMARK                            x       y       z     vdW  Elec       q    Type
REMARK                         _______ _______ _______ _____ _____    ______ ____
ROOT
ATOM      1  C   UNL     1       3.191  -0.565   1.098  0.00  0.00    +0.000 C 
ENDROOT
BRANCH   1   2
ATOM      2  C   UNL     1       2.451  -0.071  -0.144  0.00  0.00    +0.000 C 
ATOM      3  O   UNL     1       2.990   0.291  -1.181  0.00  0.00    +0.000 OA
BRANCH   2   4
ATOM      4  O   UNL     1       1.101  -0.059  -0.025  0.00  0.00    +0.000 OA
ATOM      5  H   UNL     1       0.741  -0.456   0.792  0.00  0.00    +0.000 HD
ENDBRANCH   2   4
ENDBRANCH   1   2
BRANCH   1   6
ATOM      6  S   UNL     1       2.616  -2.301   1.420  0.00  0.00    +0.000 S 
ATOM      7  H   UNL     1       3.146  -2.877   0.322  0.00  0.00    +0.000 HD
ENDBRANCH   1   6
BRANCH   1   8
ATOM      8  C   UNL     1       4.723  -0.470   0.961  0.00  0.00    +0.000 C 
BRANCH   8   9
ATOM      9  S   UNL     1       5.287   1.286   0.667  0.00  0.00    +0.000 S 
ATOM     10  H   UNL     1       4.828   1.842   1.796  0.00  0.00    +0.000 HD
ENDBRANCH   8   9
BRANCH   8  11
ATOM     11  C   UNL     1       5.553  -0.987   2.146  0.00  0.00    +0.000 C 
ATOM     12  O   UNL     1       6.779  -1.014   2.136  0.00  0.00    +0.000 OA
BRANCH  11  13
ATOM     13  O   UNL     1       4.888  -1.409   3.243  0.00  0.00    +0.000 OA
ATOM     14  H   UNL     1       3.924  -1.547   3.182  0.00  0.00    +0.000 HD
ENDBRANCH  11  13
ENDBRANCH   8  11
ENDBRANCH   1   8
TORSDOF 7
