REMARK  Name = Dimetindene
REMARK  8 active torsions:
REMARK  status: ('A' for Active; 'I' for Inactive)
REMARK    1  A    between atoms: C_1  and  C_2
REMARK    2  A    between atoms: C_2  and  C_3
REMARK    3  A    between atoms: C_2  and  C_17
REMARK    4  A    between atoms: C_4  and  C_5
REMARK    5  A    between atoms: C_5  and  C_6
REMARK    6  A    between atoms: C_6  and  N_7
REMARK    7  A    between atoms: N_7  and  C_8
REMARK    8  A    between atoms: N_7  and  C_9
REMARK                            x       y       z     vdW  Elec       q    Type
REMARK                         _______ _______ _______ _____ _____    ______ ____
ROOT
ATOM      1  C   UNL     1       3.053   1.118   0.951  0.00  0.00    +0.000 C 
ATOM      2  C   UNL     1       2.700   2.357   0.492  0.00  0.00    +0.000 C 
ATOM      3  C   UNL     1       3.178   3.483   1.413  0.00  0.00    +0.000 C 
ATOM      4  C   UNL     1       3.966   2.735   2.447  0.00  0.00    +0.000 A 
ATOM      5  C   UNL     1       4.672   3.253   3.555  0.00  0.00    +0.000 A 
ATOM      6  C   UNL     1       5.376   2.406   4.422  0.00  0.00    +0.000 A 
ATOM      7  C   UNL     1       5.402   1.065   4.165  0.00  0.00    +0.000 A 
ATOM      8  C   UNL     1       4.710   0.597   3.059  0.00  0.00    +0.000 A 
ATOM      9  C   UNL     1       3.928   1.370   2.178  0.00  0.00    +0.000 A 
ENDROOT
BRANCH   1  11
ATOM     10  C   UNL     1       0.937  -0.231   0.490  0.00  0.00    +0.000 C 
ATOM     11  C   UNL     1       2.478  -0.200   0.294  0.00  0.00    +0.000 C 
BRANCH  11  12
ATOM     12  C   UNL     1       2.903  -1.608   0.682  0.00  0.00    +0.000 A 
ATOM     13  C   UNL     1       3.973  -1.679   1.519  0.00  0.00    +0.000 A 
ATOM     14  C   UNL     1       4.180  -2.744   2.362  0.00  0.00    +0.000 A 
ATOM     15  C   UNL     1       3.574  -3.907   2.019  0.00  0.00    +0.000 A 
ATOM     16  C   UNL     1       2.721  -3.883   0.913  0.00  0.00    +0.000 A 
ATOM     17  N   UNL     1       2.324  -2.741   0.278  0.00  0.00    +0.000 NA
ENDBRANCH  11  12
ENDBRANCH   1  11
BRANCH   2  18
ATOM     18  C   UNL     1       1.867   2.755  -0.737  0.00  0.00    +0.000 C 
BRANCH  18  19
ATOM     19  C   UNL     1       1.627   1.661  -1.809  0.00  0.00    +0.000 C 
BRANCH  19  20
ATOM     20  N   UNL     1       0.665   1.908  -2.884  0.00  0.00    +0.000 NA
ATOM     21  C   UNL     1       1.327   2.780  -3.836  0.00  0.00    +0.000 C 
ATOM     22  C   UNL     1       0.325   0.602  -3.496  0.00  0.00    +0.000 C 
ENDBRANCH  19  20
ENDBRANCH  18  19
ENDBRANCH   2  18
TORSDOF 5
