REMARK  Name = Dimethyl fumarate
REMARK  6 active torsions:
REMARK  status: ('A' for Active; 'I' for Inactive)
REMARK    1  A    between atoms: C_2  and  C_9
REMARK    2  A    between atoms: C_3  and  C_5
REMARK    3  A    between atoms: C_5  and  O_7
REMARK    4  A    between atoms: O_7  and  C_8
REMARK    5  A    between atoms: C_9  and  O_11
REMARK    6  A    between atoms: O_11  and  C_12
REMARK                            x       y       z     vdW  Elec       q    Type
REMARK                         _______ _______ _______ _____ _____    ______ ____
ROOT
ATOM      1  C   UNL     1       2.112  -0.075  -0.065  0.00  0.00    +0.000 C 
ATOM      2  C   UNL     1       2.708  -0.272  -1.255  0.00  0.00    +0.000 C 
ENDROOT
BRANCH   2   3
ATOM      3  C   UNL     1       1.877  -0.473  -2.472  0.00  0.00    +0.000 C 
ATOM      4  O   UNL     1       0.654  -0.473  -2.477  0.00  0.00    +0.000 OA
BRANCH   3   5
ATOM      5  O   UNL     1       2.670  -0.653  -3.562  0.00  0.00    +0.000 OA
ATOM      6  C   UNL     1       1.955  -0.857  -4.795  0.00  0.00    +0.000 C 
ENDBRANCH   3   5
ENDBRANCH   2   3
BRANCH   1   7
ATOM      7  C   UNL     1       2.782   0.141   1.242  0.00  0.00    +0.000 C 
ATOM      8  O   UNL     1       2.141   0.311   2.270  0.00  0.00    +0.000 OA
BRANCH   7   9
ATOM      9  O   UNL     1       4.135   0.126   1.153  0.00  0.00    +0.000 OA
ATOM     10  C   UNL     1       4.818   0.333   2.401  0.00  0.00    +0.000 C 
ENDBRANCH   7   9
ENDBRANCH   1   7
TORSDOF 4
