REMARK  Name = Dimercaprol
REMARK  5 active torsions:
REMARK  status: ('A' for Active; 'I' for Inactive)
REMARK    1  A    between atoms: O_1  and  C_2
REMARK    2  A    between atoms: C_2  and  C_3
REMARK    3  A    between atoms: C_3  and  S_4
REMARK    4  A    between atoms: C_3  and  C_5
REMARK    5  A    between atoms: C_5  and  S_6
REMARK                            x       y       z     vdW  Elec       q    Type
REMARK                         _______ _______ _______ _____ _____    ______ ____
ROOT
ATOM      1  C   UNL     1       3.003   1.479  -0.185  0.00  0.00    +0.000 C 
ENDROOT
BRANCH   1   2
ATOM      2  S   UNL     1       2.327   2.540   1.163  0.00  0.00    +0.000 S 
ATOM      3  H   UNL     1       2.910   1.902   2.186  0.00  0.00    +0.000 HD
ENDBRANCH   1   2
BRANCH   1   4
ATOM      4  C   UNL     1       2.496   0.033  -0.022  0.00  0.00    +0.000 C 
BRANCH   4   5
ATOM      5  O   UNL     1       1.077  -0.029  -0.113  0.00  0.00    +0.000 OA
ATOM      6  H   UNL     1       0.805  -0.940   0.100  0.00  0.00    +0.000 HD
ENDBRANCH   4   5
ENDBRANCH   1   4
BRANCH   1   7
ATOM      7  C   UNL     1       4.540   1.488  -0.220  0.00  0.00    +0.000 C 
BRANCH   7   8
ATOM      8  S   UNL     1       5.307   3.124  -0.481  0.00  0.00    +0.000 S 
ATOM      9  H   UNL     1       4.625   3.454  -1.588  0.00  0.00    +0.000 HD
ENDBRANCH   7   8
ENDBRANCH   1   7
TORSDOF 5
