REMARK  Name = Dimetotiazine
REMARK  10 active torsions:
REMARK  status: ('A' for Active; 'I' for Inactive)
REMARK    1  A    between atoms: C_1  and  C_2
REMARK    2  A    between atoms: C_2  and  C_3
REMARK    3  A    between atoms: C_2  and  N_24
REMARK    4  A    between atoms: C_3  and  N_4
REMARK    5  A    between atoms: C_15  and  S_18
REMARK    6  A    between atoms: S_18  and  N_21
REMARK    7  A    between atoms: N_21  and  C_22
REMARK    8  A    between atoms: N_21  and  C_23
REMARK    9  A    between atoms: N_24  and  C_25
REMARK   10  A    between atoms: N_24  and  C_26
REMARK                            x       y       z     vdW  Elec       q    Type
REMARK                         _______ _______ _______ _____ _____    ______ ____
ROOT
ATOM      1  N   UNL     1       2.386   0.342   2.473  0.00  0.00    +0.000 N 
ATOM      2  C   UNL     1       1.492   1.407   2.320  0.00  0.00    +0.000 A 
ATOM      3  C   UNL     1       0.190   1.187   1.868  0.00  0.00    +0.000 A 
ATOM      4  C   UNL     1      -0.582   2.245   1.392  0.00  0.00    +0.000 A 
ATOM      5  C   UNL     1      -0.226   3.540   1.721  0.00  0.00    +0.000 A 
ATOM      6  C   UNL     1       0.926   3.761   2.475  0.00  0.00    +0.000 A 
ATOM      7  C   UNL     1       1.808   2.707   2.741  0.00  0.00    +0.000 A 
ATOM      8  S   UNL     1       3.296   3.007   3.688  0.00  0.00    +0.000 S 
ATOM      9  C   UNL     1       3.464   1.379   4.426  0.00  0.00    +0.000 A 
ATOM     10  C   UNL     1       3.062   0.229   3.711  0.00  0.00    +0.000 A 
ATOM     11  C   UNL     1       3.134  -1.017   4.336  0.00  0.00    +0.000 A 
ATOM     12  C   UNL     1       3.673  -1.141   5.613  0.00  0.00    +0.000 A 
ATOM     13  C   UNL     1       4.059   0.001   6.323  0.00  0.00    +0.000 A 
ATOM     14  C   UNL     1       3.939   1.262   5.734  0.00  0.00    +0.000 A 
ENDROOT
BRANCH  12  15
ATOM     15  S   UNL     1       3.893  -2.720   6.392  0.00  0.00    +0.000 S 
ATOM     16  O   UNL     1       5.305  -2.883   6.621  0.00  0.00    +0.000 OA
ATOM     17  O   UNL     1       2.942  -2.774   7.496  0.00  0.00    +0.000 OA
BRANCH  15  18
ATOM     18  N   UNL     1       3.434  -3.935   5.255  0.00  0.00    +0.000 NA
ATOM     19  C   UNL     1       4.246  -3.981   4.013  0.00  0.00    +0.000 C 
ATOM     20  C   UNL     1       3.470  -5.288   5.889  0.00  0.00    +0.000 C 
ENDBRANCH  15  18
ENDBRANCH  12  15
BRANCH   1  21
ATOM     21  C   UNL     1       2.964  -0.467   1.329  0.00  0.00    +0.000 C 
BRANCH  21  23
ATOM     22  C   UNL     1       1.150  -0.021  -0.401  0.00  0.00    +0.000 C 
ATOM     23  C   UNL     1       2.644  -0.035  -0.166  0.00  0.00    +0.000 C 
BRANCH  23  24
ATOM     24  N   UNL     1       3.192  -0.896  -1.249  0.00  0.00    +0.000 NA
ATOM     25  C   UNL     1       2.746  -0.407  -2.573  0.00  0.00    +0.000 C 
ATOM     26  C   UNL     1       4.652  -0.878  -1.225  0.00  0.00    +0.000 C 
ENDBRANCH  23  24
ENDBRANCH  21  23
ENDBRANCH   1  21
TORSDOF 5
