REMARK  Name = Dinoprost
REMARK  17 active torsions:
REMARK  status: ('A' for Active; 'I' for Inactive)
REMARK    1  A    between atoms: C_2  and  C_3
REMARK    2  A    between atoms: C_3  and  C_4
REMARK    3  A    between atoms: C_4  and  C_5
REMARK    4  A    between atoms: C_5  and  C_6
REMARK    5  A    between atoms: C_6  and  O_7
REMARK    6  A    between atoms: C_9  and  C_11
REMARK    7  A    between atoms: C_11  and  C_12
REMARK    8  A    between atoms: C_14  and  O_16
REMARK    9  A    between atoms: C_18  and  O_20
REMARK   10  A    between atoms: C_21  and  C_23
REMARK   11  A    between atoms: C_25  and  C_27
REMARK   12  A    between atoms: C_27  and  O_29
REMARK   13  A    between atoms: C_27  and  C_30
REMARK   14  A    between atoms: C_30  and  C_31
REMARK   15  A    between atoms: C_31  and  C_32
REMARK   16  A    between atoms: C_32  and  C_33
REMARK   17  A    between atoms: C_33  and  C_34
REMARK                            x       y       z     vdW  Elec       q    Type
REMARK                         _______ _______ _______ _____ _____    ______ ____
ROOT
ATOM      1  C   UNL     1       4.821   2.586   0.009  0.00  0.00    +0.000 C 
ATOM      2  C   UNL     1       4.024   3.841  -0.359  0.00  0.00    +0.000 C 
ATOM      3  C   UNL     1       4.881   4.970   0.199  0.00  0.00    +0.000 C 
ATOM      4  C   UNL     1       5.410   4.425   1.526  0.00  0.00    +0.000 C 
ATOM      5  C   UNL     1       5.384   2.886   1.419  0.00  0.00    +0.000 C 
ENDROOT
BRANCH   2   6
ATOM      6  O   UNL     1       2.766   3.944   0.290  0.00  0.00    +0.000 OA
ATOM      7  H   UNL     1       2.096   3.680  -0.368  0.00  0.00    +0.000 HD
ENDBRANCH   2   6
BRANCH   5   8
ATOM      8  C   UNL     1       6.755   2.279   1.613  0.00  0.00    +0.000 C 
ATOM      9  C   UNL     1       7.010   0.962   1.603  0.00  0.00    +0.000 C 
BRANCH   9  10
ATOM     10  C   UNL     1       8.360   0.354   1.747  0.00  0.00    +0.000 C 
BRANCH  10  11
ATOM     11  O   UNL     1       8.860   0.678   3.034  0.00  0.00    +0.000 OA
ATOM     12  H   UNL     1       8.841   1.645   3.114  0.00  0.00    +0.000 HD
ENDBRANCH  10  11
BRANCH  10  13
ATOM     13  C   UNL     1       8.267  -1.164   1.609  0.00  0.00    +0.000 C 
BRANCH  13  14
ATOM     14  C   UNL     1       9.642  -1.786   1.780  0.00  0.00    +0.000 C 
BRANCH  14  15
ATOM     15  C   UNL     1       9.567  -3.297   1.656  0.00  0.00    +0.000 C 
BRANCH  15  16
ATOM     16  C   UNL     1      10.952  -3.901   1.837  0.00  0.00    +0.000 C 
ATOM     17  C   UNL     1      10.890  -5.410   1.718  0.00  0.00    +0.000 C 
ENDBRANCH  15  16
ENDBRANCH  14  15
ENDBRANCH  13  14
ENDBRANCH  10  13
ENDBRANCH   9  10
ENDBRANCH   5   8
BRANCH   4  18
ATOM     18  O   UNL     1       4.583   4.846   2.610  0.00  0.00    +0.000 OA
ATOM     19  H   UNL     1       3.670   4.571   2.396  0.00  0.00    +0.000 HD
ENDBRANCH   4  18
BRANCH   1  20
ATOM     20  C   UNL     1       4.170   1.195  -0.036  0.00  0.00    +0.000 C 
BRANCH  20  22
ATOM     21  C   UNL     1       2.090  -0.152   0.034  0.00  0.00    +0.000 C 
ATOM     22  C   UNL     1       2.690   1.039  -0.009  0.00  0.00    +0.000 C 
BRANCH  21  23
ATOM     23  C   UNL     1       2.849  -1.437   0.070  0.00  0.00    +0.000 C 
BRANCH  23  24
ATOM     24  C   UNL     1       1.855  -2.573   0.105  0.00  0.00    +0.000 C 
BRANCH  24  25
ATOM     25  C   UNL     1       2.560  -3.912   0.137  0.00  0.00    +0.000 C 
BRANCH  25  26
ATOM     26  C   UNL     1       1.636  -5.103   0.161  0.00  0.00    +0.000 C 
ATOM     27  O   UNL     1       2.070  -6.251   0.181  0.00  0.00    +0.000 OA
BRANCH  26  28
ATOM     28  O   UNL     1       0.312  -4.861   0.156  0.00  0.00    +0.000 OA
ATOM     29  H   UNL     1       0.016  -3.934   0.142  0.00  0.00    +0.000 HD
ENDBRANCH  26  28
ENDBRANCH  25  26
ENDBRANCH  24  25
ENDBRANCH  23  24
ENDBRANCH  21  23
ENDBRANCH  20  22
ENDBRANCH   1  20
TORSDOF 16
