REMARK  Name = Dinoprostone
REMARK  16 active torsions:
REMARK  status: ('A' for Active; 'I' for Inactive)
REMARK    1  A    between atoms: C_1  and  C_2
REMARK    2  A    between atoms: C_2  and  C_3
REMARK    3  A    between atoms: C_3  and  C_4
REMARK    4  A    between atoms: C_4  and  C_5
REMARK    5  A    between atoms: C_5  and  C_6
REMARK    6  A    between atoms: C_6  and  O_7
REMARK    7  A    between atoms: C_6  and  C_8
REMARK    8  A    between atoms: C_9  and  C_10
REMARK    9  A    between atoms: C_11  and  O_12
REMARK   10  A    between atoms: C_16  and  C_17
REMARK   11  A    between atoms: C_17  and  C_18
REMARK   12  A    between atoms: C_19  and  C_20
REMARK   13  A    between atoms: C_20  and  C_21
REMARK   14  A    between atoms: C_21  and  C_22
REMARK   15  A    between atoms: C_22  and  C_23
REMARK   16  A    between atoms: C_23  and  O_24
REMARK                            x       y       z     vdW  Elec       q    Type
REMARK                         _______ _______ _______ _____ _____    ______ ____
ROOT
ATOM      1  C   UNL     1       8.948   5.518  -2.204  0.00  0.00    +0.000 C 
ATOM      2  C   UNL     1      10.306   5.747  -1.496  0.00  0.00    +0.000 C 
ATOM      3  C   UNL     1      10.454   7.255  -1.279  0.00  0.00    +0.000 C 
ATOM      4  C   UNL     1       9.140   7.794  -1.779  0.00  0.00    +0.000 C 
ATOM      5  O   UNL     1       8.941   8.969  -2.059  0.00  0.00    +0.000 OA
ATOM      6  C   UNL     1       8.080   6.730  -1.825  0.00  0.00    +0.000 C 
ENDROOT
BRANCH   1   8
ATOM      7  C   UNL     1      10.067   5.680  -4.476  0.00  0.00    +0.000 C 
ATOM      8  C   UNL     1       8.993   5.450  -3.707  0.00  0.00    +0.000 C 
BRANCH   7   9
ATOM      9  C   UNL     1      10.048   5.573  -5.960  0.00  0.00    +0.000 C 
BRANCH   9  10
ATOM     10  O   UNL     1      11.358   5.863  -6.432  0.00  0.00    +0.000 OA
ATOM     11  H   UNL     1      11.953   5.171  -6.095  0.00  0.00    +0.000 HD
ENDBRANCH   9  10
BRANCH   9  12
ATOM     12  C   UNL     1       9.634   4.171  -6.398  0.00  0.00    +0.000 C 
BRANCH  12  13
ATOM     13  C   UNL     1       9.387   4.144  -7.896  0.00  0.00    +0.000 C 
BRANCH  13  14
ATOM     14  C   UNL     1       8.908   2.766  -8.316  0.00  0.00    +0.000 C 
BRANCH  14  16
ATOM     15  C   UNL     1       8.177   1.361 -10.240  0.00  0.00    +0.000 C 
ATOM     16  C   UNL     1       8.649   2.736  -9.814  0.00  0.00    +0.000 C 
ENDBRANCH  14  16
ENDBRANCH  13  14
ENDBRANCH  12  13
ENDBRANCH   9  12
ENDBRANCH   7   9
ENDBRANCH   1   8
BRANCH   2  17
ATOM     17  O   UNL     1      10.401   5.014  -0.277  0.00  0.00    +0.000 OA
ATOM     18  H   UNL     1       9.681   5.246   0.328  0.00  0.00    +0.000 HD
ENDBRANCH   2  17
BRANCH   6  19
ATOM     19  C   UNL     1       7.442   6.608  -0.454  0.00  0.00    +0.000 C 
BRANCH  19  20
ATOM     20  C   UNL     1       6.447   5.486  -0.405  0.00  0.00    +0.000 C 
ATOM     21  C   UNL     1       5.831   5.132   0.729  0.00  0.00    +0.000 C 
BRANCH  21  22
ATOM     22  C   UNL     1       6.083   5.849   2.020  0.00  0.00    +0.000 C 
BRANCH  22  23
ATOM     23  C   UNL     1       5.220   5.272   3.122  0.00  0.00    +0.000 C 
BRANCH  23  24
ATOM     24  C   UNL     1       5.460   5.987   4.440  0.00  0.00    +0.000 C 
BRANCH  24  25
ATOM     25  C   UNL     1       4.639   5.474   5.598  0.00  0.00    +0.000 C 
ATOM     26  O   UNL     1       4.734   5.961   6.721  0.00  0.00    +0.000 OA
BRANCH  25  27
ATOM     27  O   UNL     1       3.794   4.455   5.355  0.00  0.00    +0.000 OA
ATOM     28  H   UNL     1       3.753   4.103   4.448  0.00  0.00    +0.000 HD
ENDBRANCH  25  27
ENDBRANCH  24  25
ENDBRANCH  23  24
ENDBRANCH  22  23
ENDBRANCH  21  22
ENDBRANCH  19  20
ENDBRANCH   6  19
TORSDOF 15
