REMARK  Name = Dinoprost tromethamine
REMARK  24 active torsions:
REMARK  status: ('A' for Active; 'I' for Inactive)
REMARK    1  A    between atoms: N_1  and  C_2
REMARK    2  A    between atoms: C_2  and  C_3
REMARK    3  A    between atoms: C_2  and  C_5
REMARK    4  A    between atoms: C_2  and  C_7
REMARK    5  A    between atoms: C_3  and  O_4
REMARK    6  A    between atoms: C_5  and  O_6
REMARK    7  A    between atoms: C_7  and  O_8
REMARK    8  A    between atoms: C_9  and  C_10
REMARK    9  A    between atoms: C_10  and  C_11
REMARK   10  A    between atoms: C_11  and  C_12
REMARK   11  A    between atoms: C_12  and  C_13
REMARK   12  A    between atoms: C_13  and  C_14
REMARK   13  A    between atoms: C_14  and  O_15
REMARK   14  A    between atoms: C_14  and  C_16
REMARK   15  A    between atoms: C_17  and  C_18
REMARK   16  A    between atoms: C_19  and  O_20
REMARK   17  A    between atoms: C_22  and  O_23
REMARK   18  A    between atoms: C_24  and  C_25
REMARK   19  A    between atoms: C_25  and  C_26
REMARK   20  A    between atoms: C_27  and  C_28
REMARK   21  A    between atoms: C_28  and  C_29
REMARK   22  A    between atoms: C_29  and  C_30
REMARK   23  A    between atoms: C_30  and  C_31
REMARK   24  A    between atoms: C_31  and  O_32
REMARK                            x       y       z     vdW  Elec       q    Type
REMARK                         _______ _______ _______ _____ _____    ______ ____
ROOT
ATOM      1  C   UNL     1       2.478  -0.031   0.071  0.00  0.00    +0.000 C 
ENDROOT
BRANCH   1   2
ATOM      2  N   UNL     1       0.994  -0.041   0.053  0.00  0.00    +0.000 NA
ATOM      3  H   UNL     1       0.666   0.513   0.850  0.00  0.00    +0.000 HD
ATOM      4  H   UNL     1       0.656  -0.984   0.253  0.00  0.00    +0.000 HD
ENDBRANCH   1   2
BRANCH   1   5
ATOM      5  C   UNL     1       2.982   1.430  -0.120  0.00  0.00    +0.000 C 
BRANCH   5   6
ATOM      6  O   UNL     1       2.605   2.031  -1.356  0.00  0.00    +0.000 OA
ATOM      7  H   UNL     1       2.765   1.409  -2.082  0.00  0.00    +0.000 HD
ENDBRANCH   5   6
ENDBRANCH   1   5
BRANCH   1   8
ATOM      8  C   UNL     1       2.986  -0.575   1.436  0.00  0.00    +0.000 C 
BRANCH   8   9
ATOM      9  O   UNL     1       2.482   0.191   2.531  0.00  0.00    +0.000 OA
ATOM     10  H   UNL     1       2.861   1.084   2.481  0.00  0.00    +0.000 HD
ENDBRANCH   8   9
ENDBRANCH   1   8
BRANCH   1  11
ATOM     11  C   UNL     1       3.009  -0.945  -1.060  0.00  0.00    +0.000 C 
BRANCH  11  12
ATOM     12  O   UNL     1       4.434  -0.986  -1.087  0.00  0.00    +0.000 OA
ATOM     13  H   UNL     1       4.771  -0.095  -1.284  0.00  0.00    +0.000 HD
ENDBRANCH  11  12
ENDBRANCH   1  11
TORSDOF 7
REMARK  Name = Dinoprost tromethamine
REMARK  24 active torsions:
REMARK  status: ('A' for Active; 'I' for Inactive)
REMARK    1  A    between atoms: N_1  and  C_2
REMARK    2  A    between atoms: C_2  and  C_3
REMARK    3  A    between atoms: C_2  and  C_5
REMARK    4  A    between atoms: C_2  and  C_7
REMARK    5  A    between atoms: C_3  and  O_4
REMARK    6  A    between atoms: C_5  and  O_6
REMARK    7  A    between atoms: C_7  and  O_8
REMARK    8  A    between atoms: C_9  and  C_10
REMARK    9  A    between atoms: C_10  and  C_11
REMARK   10  A    between atoms: C_11  and  C_12
REMARK   11  A    between atoms: C_12  and  C_13
REMARK   12  A    between atoms: C_13  and  C_14
REMARK   13  A    between atoms: C_14  and  O_15
REMARK   14  A    between atoms: C_14  and  C_16
REMARK   15  A    between atoms: C_17  and  C_18
REMARK   16  A    between atoms: C_19  and  O_20
REMARK   17  A    between atoms: C_22  and  O_23
REMARK   18  A    between atoms: C_24  and  C_25
REMARK   19  A    between atoms: C_25  and  C_26
REMARK   20  A    between atoms: C_27  and  C_28
REMARK   21  A    between atoms: C_28  and  C_29
REMARK   22  A    between atoms: C_29  and  C_30
REMARK   23  A    between atoms: C_30  and  C_31
REMARK   24  A    between atoms: C_31  and  O_32
REMARK                            x       y       z     vdW  Elec       q    Type
REMARK                         _______ _______ _______ _____ _____    ______ ____
ROOT
ATOM      1  C   UNL     2       8.928   1.397  -5.888  0.00  0.00    +0.000 C 
ATOM      2  C   UNL     2      10.237   0.668  -6.223  0.00  0.00    +0.000 C 
ATOM      3  C   UNL     2      11.078   1.670  -7.021  0.00  0.00    +0.000 C 
ATOM      4  C   UNL     2      10.235   2.949  -7.148  0.00  0.00    +0.000 C 
ATOM      5  C   UNL     2       9.254   2.896  -5.971  0.00  0.00    +0.000 C 
ENDROOT
BRANCH   2   6
ATOM      6  O   UNL     2      10.918   0.231  -5.048  0.00  0.00    +0.000 OA
ATOM      7  H   UNL     2      11.091   0.982  -4.462  0.00  0.00    +0.000 HD
ENDBRANCH   2   6
BRANCH   4   8
ATOM      8  O   UNL     2      11.025   4.121  -7.191  0.00  0.00    +0.000 OA
ATOM      9  H   UNL     2      11.601   4.150  -6.412  0.00  0.00    +0.000 HD
ENDBRANCH   4   8
BRANCH   1  11
ATOM     10  C   UNL     2       7.936   0.954  -8.200  0.00  0.00    +0.000 C 
ATOM     11  C   UNL     2       7.828   1.107  -6.865  0.00  0.00    +0.000 C 
BRANCH  10  12
ATOM     12  C   UNL     2       6.823   0.580  -9.131  0.00  0.00    +0.000 C 
BRANCH  12  13
ATOM     13  O   UNL     2       7.303   0.577 -10.466  0.00  0.00    +0.000 OA
ATOM     14  H   UNL     2       7.992  -0.100 -10.542  0.00  0.00    +0.000 HD
ENDBRANCH  12  13
BRANCH  12  15
ATOM     15  C   UNL     2       6.237  -0.785  -8.754  0.00  0.00    +0.000 C 
BRANCH  15  16
ATOM     16  C   UNL     2       5.378  -0.551  -7.524  0.00  0.00    +0.000 C 
BRANCH  16  17
ATOM     17  C   UNL     2       4.226  -1.482  -7.341  0.00  0.00    +0.000 C 
BRANCH  17  19
ATOM     18  C   UNL     2       2.266  -1.868  -5.897  0.00  0.00    +0.000 C 
ATOM     19  C   UNL     2       3.427  -0.947  -6.155  0.00  0.00    +0.000 C 
ENDBRANCH  17  19
ENDBRANCH  16  17
ENDBRANCH  15  16
ENDBRANCH  12  15
ENDBRANCH  10  12
ENDBRANCH   1  11
BRANCH   5  20
ATOM     20  C   UNL     2       9.866   3.431  -4.687  0.00  0.00    +0.000 C 
BRANCH  20  21
ATOM     21  C   UNL     2       8.936   3.357  -3.515  0.00  0.00    +0.000 C 
ATOM     22  C   UNL     2       9.338   3.722  -2.293  0.00  0.00    +0.000 C 
BRANCH  22  23
ATOM     23  C   UNL     2      10.729   4.223  -2.042  0.00  0.00    +0.000 C 
BRANCH  23  24
ATOM     24  C   UNL     2      10.900   4.598  -0.587  0.00  0.00    +0.000 C 
BRANCH  24  25
ATOM     25  C   UNL     2      12.304   5.109  -0.309  0.00  0.00    +0.000 C 
BRANCH  25  26
ATOM     26  C   UNL     2      12.558   5.504   1.124  0.00  0.00    +0.000 C 
ATOM     27  O   UNL     2      13.652   5.933   1.490  0.00  0.00    +0.000 OA
BRANCH  26  28
ATOM     28  O   UNL     2      11.542   5.368   1.995  0.00  0.00    +0.000 OA
ATOM     29  H   UNL     2      10.695   5.027   1.658  0.00  0.00    +0.000 HD
ENDBRANCH  26  28
ENDBRANCH  25  26
ENDBRANCH  24  25
ENDBRANCH  23  24
ENDBRANCH  22  23
ENDBRANCH  20  21
ENDBRANCH   5  20
TORSDOF 16
