REMARK  Name = Diosmin
REMARK  17 active torsions:
REMARK  status: ('A' for Active; 'I' for Inactive)
REMARK    1  A    between atoms: C_1  and  O_2
REMARK    2  A    between atoms: O_2  and  C_3
REMARK    3  A    between atoms: C_4  and  O_5
REMARK    4  A    between atoms: C_7  and  C_10
REMARK    5  A    between atoms: C_15  and  O_16
REMARK    6  A    between atoms: C_18  and  O_19
REMARK    7  A    between atoms: O_19  and  C_20
REMARK    8  A    between atoms: C_22  and  C_23
REMARK    9  A    between atoms: C_23  and  O_24
REMARK   10  A    between atoms: O_24  and  C_25
REMARK   11  A    between atoms: C_27  and  C_28
REMARK   12  A    between atoms: C_29  and  O_30
REMARK   13  A    between atoms: C_31  and  O_32
REMARK   14  A    between atoms: C_33  and  O_34
REMARK   15  A    between atoms: C_35  and  O_36
REMARK   16  A    between atoms: C_37  and  O_38
REMARK   17  A    between atoms: C_39  and  O_40
REMARK                            x       y       z     vdW  Elec       q    Type
REMARK                         _______ _______ _______ _____ _____    ______ ____
ROOT
ATOM      1  C   UNL     1       1.171   8.492   1.028  0.00  0.00    +0.000 C 
ATOM      2  O   UNL     1       0.918   9.551   1.999  0.00  0.00    +0.000 OA
ATOM      3  C   UNL     1       1.235  10.909   1.560  0.00  0.00    +0.000 C 
ATOM      4  C   UNL     1       0.428  11.302   0.314  0.00  0.00    +0.000 C 
ATOM      5  C   UNL     1       0.751  10.317  -0.807  0.00  0.00    +0.000 C 
ATOM      6  C   UNL     1       0.561   8.849  -0.358  0.00  0.00    +0.000 C 
ENDROOT
BRANCH   4   7
ATOM      7  O   UNL     1       0.675  12.657  -0.093  0.00  0.00    +0.000 OA
ATOM      8  H   UNL     1       1.593  12.753  -0.399  0.00  0.00    +0.000 HD
ENDBRANCH   4   7
BRANCH   5   9
ATOM      9  O   UNL     1      -0.099  10.589  -1.935  0.00  0.00    +0.000 OA
ATOM     10  H   UNL     1      -1.022  10.421  -1.670  0.00  0.00    +0.000 HD
ENDBRANCH   5   9
BRANCH   6  11
ATOM     11  O   UNL     1       1.052   7.965  -1.371  0.00  0.00    +0.000 OA
ATOM     12  H   UNL     1       1.975   8.198  -1.571  0.00  0.00    +0.000 HD
ENDBRANCH   6  11
BRANCH   1  13
ATOM     13  O   UNL     1       0.773   7.034   1.443  0.00  0.00    +0.000 OA
BRANCH  13  21
ATOM     14  C   UNL     1      -5.461   4.645   2.298  0.00  0.00    +0.000 A 
ATOM     15  C   UNL     1      -5.348   5.880   2.789  0.00  0.00    +0.000 A 
ATOM     16  C   UNL     1      -4.187   5.807   3.631  0.00  0.00    +0.000 A 
ATOM     17  O   UNL     1      -4.117   5.255   4.753  0.00  0.00    +0.000 OA
ATOM     18  C   UNL     1      -3.025   6.095   2.895  0.00  0.00    +0.000 A 
ATOM     19  C   UNL     1      -2.660   7.375   2.460  0.00  0.00    +0.000 A 
ATOM     20  C   UNL     1      -1.442   7.670   1.902  0.00  0.00    +0.000 A 
ATOM     21  C   UNL     1      -0.566   6.649   1.675  0.00  0.00    +0.000 A 
ATOM     22  C   UNL     1      -1.153   5.240   1.786  0.00  0.00    +0.000 A 
ATOM     23  C   UNL     1      -2.538   4.971   2.315  0.00  0.00    +0.000 A 
ATOM     24  O   UNL     1      -3.914   4.248   1.653  0.00  0.00    +0.000 OA
BRANCH  14  28
ATOM     25  C   UNL     1      -9.737   5.651   0.419  0.00  0.00    +0.000 A 
ATOM     26  C   UNL     1      -9.652   4.777   1.504  0.00  0.00    +0.000 A 
ATOM     27  C   UNL     1      -8.353   4.395   2.119  0.00  0.00    +0.000 A 
ATOM     28  C   UNL     1      -7.034   4.800   1.590  0.00  0.00    +0.000 A 
ATOM     29  C   UNL     1      -7.257   5.808   0.612  0.00  0.00    +0.000 A 
ATOM     30  C   UNL     1      -8.529   6.209   0.042  0.00  0.00    +0.000 A 
BRANCH  25  32
ATOM     31  C   UNL     1     -10.989   6.739  -1.332  0.00  0.00    +0.000 C 
ATOM     32  O   UNL     1     -10.964   5.907  -0.156  0.00  0.00    +0.000 OA
ENDBRANCH  25  32
BRANCH  26  33
ATOM     33  O   UNL     1     -10.845   4.266   1.998  0.00  0.00    +0.000 OA
ATOM     34  H   UNL     1     -11.568   4.574   1.403  0.00  0.00    +0.000 HD
ENDBRANCH  26  33
ENDBRANCH  14  28
BRANCH  19  35
ATOM     35  O   UNL     1      -3.530   8.424   2.496  0.00  0.00    +0.000 OA
ATOM     36  H   UNL     1      -4.389   8.097   2.797  0.00  0.00    +0.000 HD
ENDBRANCH  19  35
ENDBRANCH  13  21
ENDBRANCH   1  13
BRANCH   3  37
ATOM     37  C   UNL     1       0.910  11.918   2.685  0.00  0.00    +0.000 C 
BRANCH  37  38
ATOM     38  O   UNL     1       2.056  12.755   2.886  0.00  0.00    +0.000 OA
BRANCH  38  39
ATOM     39  C   UNL     1       1.823  13.720   3.908  0.00  0.00    +0.000 C 
ATOM     40  O   UNL     1       1.004  14.795   3.436  0.00  0.00    +0.000 OA
ATOM     41  C   UNL     1       1.595  15.524   2.354  0.00  0.00    +0.000 C 
ATOM     42  C   UNL     1       0.576  16.562   1.898  0.00  0.00    +0.000 C 
ATOM     43  C   UNL     1       2.912  16.176   2.800  0.00  0.00    +0.000 C 
ATOM     44  C   UNL     1       3.863  15.093   3.343  0.00  0.00    +0.000 C 
ATOM     45  C   UNL     1       3.173  14.249   4.424  0.00  0.00    +0.000 C 
BRANCH  43  46
ATOM     46  O   UNL     1       3.512  16.906   1.729  0.00  0.00    +0.000 OA
ATOM     47  H   UNL     1       3.823  16.274   1.060  0.00  0.00    +0.000 HD
ENDBRANCH  43  46
BRANCH  44  48
ATOM     48  O   UNL     1       5.046  15.699   3.878  0.00  0.00    +0.000 OA
ATOM     49  H   UNL     1       4.767  16.198   4.670  0.00  0.00    +0.000 HD
ENDBRANCH  44  48
BRANCH  45  50
ATOM     50  O   UNL     1       3.003  15.048   5.611  0.00  0.00    +0.000 OA
ATOM     51  H   UNL     1       2.302  15.700   5.434  0.00  0.00    +0.000 HD
ENDBRANCH  45  50
ENDBRANCH  38  39
ENDBRANCH  37  38
ENDBRANCH   3  37
TORSDOF 15
