REMARK  Name = Dioxybenzone
REMARK  6 active torsions:
REMARK  status: ('A' for Active; 'I' for Inactive)
REMARK    1  A    between atoms: C_1  and  O_2
REMARK    2  A    between atoms: O_2  and  C_3
REMARK    3  A    between atoms: C_5  and  O_6
REMARK    4  A    between atoms: C_7  and  C_10
REMARK    5  A    between atoms: C_10  and  C_12
REMARK    6  A    between atoms: C_17  and  O_18
REMARK                            x       y       z     vdW  Elec       q    Type
REMARK                         _______ _______ _______ _____ _____    ______ ____
ROOT
ATOM      1  C   UNL     1       3.042   1.111   0.086  0.00  0.00    +0.000 A 
ATOM      2  C   UNL     1       4.440   1.054   0.075  0.00  0.00    +0.000 A 
ATOM      3  C   UNL     1       5.204   2.229   0.052  0.00  0.00    +0.000 A 
ATOM      4  C   UNL     1       4.579   3.483   0.033  0.00  0.00    +0.000 A 
ATOM      5  C   UNL     1       3.174   3.519   0.026  0.00  0.00    +0.000 A 
ATOM      6  C   UNL     1       2.413   2.350   0.075  0.00  0.00    +0.000 A 
ENDROOT
BRANCH   1   8
ATOM      7  C   UNL     1       0.974  -0.054   0.082  0.00  0.00    +0.000 C 
ATOM      8  O   UNL     1       2.398  -0.097   0.100  0.00  0.00    +0.000 OA
ENDBRANCH   1   8
BRANCH   3   9
ATOM      9  O   UNL     1       6.567   2.133   0.041  0.00  0.00    +0.000 OA
ATOM     10  H   UNL     1       6.852   1.208   0.046  0.00  0.00    +0.000 HD
ENDBRANCH   3   9
BRANCH   4  11
ATOM     11  C   UNL     1       5.374   4.759  -0.005  0.00  0.00    +0.000 C 
ATOM     12  O   UNL     1       6.599   4.792  -0.124  0.00  0.00    +0.000 OA
BRANCH  11  13
ATOM     13  C   UNL     1       4.698   6.069   0.030  0.00  0.00    +0.000 A 
ATOM     14  C   UNL     1       4.895   6.941  -1.048  0.00  0.00    +0.000 A 
ATOM     15  C   UNL     1       4.268   8.185  -1.052  0.00  0.00    +0.000 A 
ATOM     16  C   UNL     1       3.454   8.558   0.020  0.00  0.00    +0.000 A 
ATOM     17  C   UNL     1       3.262   7.691   1.101  0.00  0.00    +0.000 A 
ATOM     18  C   UNL     1       3.892   6.449   1.108  0.00  0.00    +0.000 A 
BRANCH  18  19
ATOM     19  O   UNL     1       3.711   5.587   2.152  0.00  0.00    +0.000 OA
ATOM     20  H   UNL     1       3.082   5.958   2.790  0.00  0.00    +0.000 HD
ENDBRANCH  18  19
ENDBRANCH  11  13
ENDBRANCH   4  11
TORSDOF 5
