REMARK  Name = Dipentamethylenethiuram disulfide
REMARK  5 active torsions:
REMARK  status: ('A' for Active; 'I' for Inactive)
REMARK    1  A    between atoms: C_2  and  S_3
REMARK    2  A    between atoms: C_2  and  N_13
REMARK    3  A    between atoms: S_3  and  S_4
REMARK    4  A    between atoms: S_4  and  C_5
REMARK    5  A    between atoms: C_5  and  N_7
REMARK                            x       y       z     vdW  Elec       q    Type
REMARK                         _______ _______ _______ _____ _____    ______ ____
ROOT
ATOM      1  S   UNL     1       3.547  -0.158  -1.542  0.00  0.00    +0.000 S 
ENDROOT
BRANCH   1   3
ATOM      2  S   UNL     1       0.937  -0.197   0.078  0.00  0.00    +0.000 S 
ATOM      3  C   UNL     1       2.618  -0.072   0.001  0.00  0.00    +0.000 C 
BRANCH   3   4
ATOM      4  N   UNL     1       3.409   0.080   1.162  0.00  0.00    +0.000 N 
ATOM      5  C   UNL     1       4.577   0.968   1.253  0.00  0.00    +0.000 C 
ATOM      6  C   UNL     1       5.796   0.213   1.777  0.00  0.00    +0.000 C 
ATOM      7  C   UNL     1       5.498  -0.492   3.104  0.00  0.00    +0.000 C 
ATOM      8  C   UNL     1       4.211  -1.316   3.022  0.00  0.00    +0.000 C 
ATOM      9  C   UNL     1       3.043  -0.489   2.474  0.00  0.00    +0.000 C 
ENDBRANCH   3   4
ENDBRANCH   1   3
BRANCH   1  10
ATOM     10  S   UNL     1       2.204  -0.472  -3.141  0.00  0.00    +0.000 S 
BRANCH  10  11
ATOM     11  C   UNL     1       3.141  -0.965  -4.602  0.00  0.00    +0.000 C 
ATOM     12  S   UNL     1       4.822  -1.112  -4.616  0.00  0.00    +0.000 S 
BRANCH  11  13
ATOM     13  N   UNL     1       2.356  -1.253  -5.747  0.00  0.00    +0.000 N 
ATOM     14  C   UNL     1       2.732  -2.278  -6.741  0.00  0.00    +0.000 C 
ATOM     15  C   UNL     1       3.067  -1.674  -8.105  0.00  0.00    +0.000 C 
ATOM     16  C   UNL     1       1.925  -0.794  -8.610  0.00  0.00    +0.000 C 
ATOM     17  C   UNL     1       1.517   0.230  -7.549  0.00  0.00    +0.000 C 
ATOM     18  C   UNL     1       1.221  -0.425  -6.187  0.00  0.00    +0.000 C 
ENDBRANCH  11  13
ENDBRANCH  10  11
ENDBRANCH   1  10
TORSDOF 5
