REMARK  Name = Diphemanil
REMARK  4 active torsions:
REMARK  status: ('A' for Active; 'I' for Inactive)
REMARK    1  A    between atoms: C_1  and  N_2
REMARK    2  A    between atoms: N_2  and  C_3
REMARK    3  A    between atoms: C_9  and  C_10
REMARK    4  A    between atoms: C_9  and  C_16
REMARK                            x       y       z     vdW  Elec       q    Type
REMARK                         _______ _______ _______ _____ _____    ______ ____
ROOT
ATOM      1  C   UNL     1       1.081   0.044   0.188  0.00  0.00    +0.000 C 
ATOM      2  N   UNL     1       2.613   0.044   0.163  0.00  0.00    +0.000 N 
ATOM      3  C   UNL     1       3.019   0.035  -1.306  0.00  0.00    +0.000 C 
ATOM      4  C   UNL     1       3.135   1.318   0.881  0.00  0.00    +0.000 C 
ATOM      5  C   UNL     1       4.655   1.272   1.107  0.00  0.00    +0.000 C 
ATOM      6  C   UNL     1       5.000   0.040   1.922  0.00  0.00    +0.000 C 
ATOM      7  C   UNL     1       4.633  -1.196   1.120  0.00  0.00    +0.000 C 
ATOM      8  C   UNL     1       3.118  -1.225   0.897  0.00  0.00    +0.000 C 
ATOM      9  C   UNL     1       5.485   0.043   3.197  0.00  0.00    +0.000 C 
ENDROOT
BRANCH   9  10
ATOM     10  C   UNL     1       5.792  -1.238   3.901  0.00  0.00    +0.000 A 
ATOM     11  C   UNL     1       5.263  -1.489   5.179  0.00  0.00    +0.000 A 
ATOM     12  C   UNL     1       5.725  -2.570   5.934  0.00  0.00    +0.000 A 
ATOM     13  C   UNL     1       6.663  -3.448   5.395  0.00  0.00    +0.000 A 
ATOM     14  C   UNL     1       7.159  -3.235   4.111  0.00  0.00    +0.000 A 
ATOM     15  C   UNL     1       6.746  -2.122   3.380  0.00  0.00    +0.000 A 
ENDBRANCH   9  10
BRANCH   9  16
ATOM     16  C   UNL     1       5.713   1.321   3.938  0.00  0.00    +0.000 A 
ATOM     17  C   UNL     1       6.955   1.549   4.551  0.00  0.00    +0.000 A 
ATOM     18  C   UNL     1       7.127   2.619   5.431  0.00  0.00    +0.000 A 
ATOM     19  C   UNL     1       6.083   3.514   5.654  0.00  0.00    +0.000 A 
ATOM     20  C   UNL     1       4.859   3.326   5.018  0.00  0.00    +0.000 A 
ATOM     21  C   UNL     1       4.667   2.221   4.189  0.00  0.00    +0.000 A 
ENDBRANCH   9  16
TORSDOF 2
