REMARK  Name = Diphenidol
REMARK  7 active torsions:
REMARK  status: ('A' for Active; 'I' for Inactive)
REMARK    1  A    between atoms: O_1  and  C_2
REMARK    2  A    between atoms: C_2  and  C_3
REMARK    3  A    between atoms: C_2  and  C_12
REMARK    4  A    between atoms: C_2  and  C_18
REMARK    5  A    between atoms: C_3  and  C_4
REMARK    6  A    between atoms: C_4  and  C_5
REMARK    7  A    between atoms: C_5  and  N_6
REMARK                            x       y       z     vdW  Elec       q    Type
REMARK                         _______ _______ _______ _____ _____    ______ ____
ROOT
ATOM      1  C   UNL     1       2.450   0.054   0.067  0.00  0.00    +0.000 C 
ENDROOT
BRANCH   1   2
ATOM      2  C   UNL     1       2.917  -0.184   1.520  0.00  0.00    +0.000 A 
ATOM      3  C   UNL     1       2.983  -1.484   2.065  0.00  0.00    +0.000 A 
ATOM      4  C   UNL     1       3.253  -1.703   3.415  0.00  0.00    +0.000 A 
ATOM      5  C   UNL     1       3.525  -0.636   4.246  0.00  0.00    +0.000 A 
ATOM      6  C   UNL     1       3.517   0.659   3.736  0.00  0.00    +0.000 A 
ATOM      7  C   UNL     1       3.204   0.876   2.392  0.00  0.00    +0.000 A 
ENDBRANCH   1   2
BRANCH   1   8
ATOM      8  C   UNL     1       2.896  -1.058  -0.908  0.00  0.00    +0.000 A 
ATOM      9  C   UNL     1       2.267  -2.317  -0.865  0.00  0.00    +0.000 A 
ATOM     10  C   UNL     1       2.742  -3.388  -1.621  0.00  0.00    +0.000 A 
ATOM     11  C   UNL     1       3.729  -3.177  -2.573  0.00  0.00    +0.000 A 
ATOM     12  C   UNL     1       4.301  -1.918  -2.713  0.00  0.00    +0.000 A 
ATOM     13  C   UNL     1       3.936  -0.892  -1.840  0.00  0.00    +0.000 A 
ENDBRANCH   1   8
BRANCH   1  14
ATOM     14  O   UNL     1       1.010   0.044   0.100  0.00  0.00    +0.000 OA
ATOM     15  H   UNL     1       0.737   0.717   0.744  0.00  0.00    +0.000 HD
ENDBRANCH   1  14
BRANCH   1  16
ATOM     16  C   UNL     1       2.852   1.472  -0.421  0.00  0.00    +0.000 C 
BRANCH  16  17
ATOM     17  C   UNL     1       2.288   1.808  -1.792  0.00  0.00    +0.000 C 
BRANCH  17  18
ATOM     18  C   UNL     1       2.895   3.101  -2.309  0.00  0.00    +0.000 C 
BRANCH  18  19
ATOM     19  N   UNL     1       2.468   3.349  -3.687  0.00  0.00    +0.000 NA
ATOM     20  C   UNL     1       2.947   4.669  -4.112  0.00  0.00    +0.000 C 
ATOM     21  C   UNL     1       2.443   4.989  -5.515  0.00  0.00    +0.000 C 
ATOM     22  C   UNL     1       2.863   3.915  -6.513  0.00  0.00    +0.000 C 
ATOM     23  C   UNL     1       2.450   2.539  -6.022  0.00  0.00    +0.000 C 
ATOM     24  C   UNL     1       2.949   2.301  -4.606  0.00  0.00    +0.000 C 
ENDBRANCH  18  19
ENDBRANCH  17  18
ENDBRANCH  16  17
ENDBRANCH   1  16
TORSDOF 7
