REMARK  Name = Diphenylpyraline
REMARK  5 active torsions:
REMARK  status: ('A' for Active; 'I' for Inactive)
REMARK    1  A    between atoms: C_1  and  N_2
REMARK    2  A    between atoms: C_5  and  O_8
REMARK    3  A    between atoms: O_8  and  C_9
REMARK    4  A    between atoms: C_9  and  C_10
REMARK    5  A    between atoms: C_9  and  C_16
REMARK                            x       y       z     vdW  Elec       q    Type
REMARK                         _______ _______ _______ _____ _____    ______ ____
ROOT
ATOM      1  C   UNL     1       2.484  -1.360  -2.242  0.00  0.00    +0.000 C 
ENDROOT
BRANCH   1   2
ATOM      2  C   UNL     1       1.983  -2.763  -1.804  0.00  0.00    +0.000 A 
ATOM      3  C   UNL     1       0.699  -2.889  -1.365  0.00  0.00    +0.000 A 
ATOM      4  C   UNL     1       0.309  -3.870  -0.473  0.00  0.00    +0.000 A 
ATOM      5  C   UNL     1       0.904  -5.100  -0.633  0.00  0.00    +0.000 A 
ATOM      6  C   UNL     1       1.967  -5.173  -1.513  0.00  0.00    +0.000 A 
ATOM      7  C   UNL     1       2.610  -4.002  -1.963  0.00  0.00    +0.000 A 
ENDBRANCH   1   2
BRANCH   1   8
ATOM      8  C   UNL     1       2.389  -1.216  -3.783  0.00  0.00    +0.000 A 
ATOM      9  C   UNL     1       2.344   0.019  -4.446  0.00  0.00    +0.000 A 
ATOM     10  C   UNL     1       2.141   0.069  -5.839  0.00  0.00    +0.000 A 
ATOM     11  C   UNL     1       2.063  -1.099  -6.601  0.00  0.00    +0.000 A 
ATOM     12  C   UNL     1       2.164  -2.323  -5.976  0.00  0.00    +0.000 A 
ATOM     13  C   UNL     1       2.317  -2.364  -4.600  0.00  0.00    +0.000 A 
ENDBRANCH   1   8
BRANCH   1  14
ATOM     14  O   UNL     1       1.731  -0.225  -1.637  0.00  0.00    +0.000 OA
BRANCH  14  19
ATOM     15  C   UNL     1      -2.484   0.240   0.006  0.00  0.00    +0.000 C 
ATOM     16  N   UNL     1      -1.119   0.375   0.583  0.00  0.00    +0.000 NA
ATOM     17  C   UNL     1      -0.358   1.424  -0.139  0.00  0.00    +0.000 C 
ATOM     18  C   UNL     1       1.154   1.394   0.185  0.00  0.00    +0.000 C 
ATOM     19  C   UNL     1       1.829   0.052  -0.209  0.00  0.00    +0.000 C 
ATOM     20  C   UNL     1       1.062  -0.940   0.658  0.00  0.00    +0.000 C 
ATOM     21  C   UNL     1      -0.449  -0.888   0.307  0.00  0.00    +0.000 C 
ENDBRANCH  14  19
ENDBRANCH   1  14
TORSDOF 4
