REMARK  Name = Diphenoxylate
REMARK  11 active torsions:
REMARK  status: ('A' for Active; 'I' for Inactive)
REMARK    1  A    between atoms: C_1  and  C_2
REMARK    2  A    between atoms: C_2  and  O_3
REMARK    3  A    between atoms: O_3  and  C_4
REMARK    4  A    between atoms: C_4  and  C_6
REMARK    5  A    between atoms: C_6  and  C_29
REMARK    6  A    between atoms: N_9  and  C_10
REMARK    7  A    between atoms: C_10  and  C_11
REMARK    8  A    between atoms: C_11  and  C_12
REMARK    9  A    between atoms: C_12  and  C_13
REMARK   10  A    between atoms: C_12  and  C_15
REMARK   11  A    between atoms: C_12  and  C_21
REMARK                            x       y       z     vdW  Elec       q    Type
REMARK                         _______ _______ _______ _____ _____    ______ ____
ROOT
ATOM      1  C   UNL     1       4.929  -1.295  -2.658  0.00  0.00    +0.000 C 
ATOM      2  C   UNL     1       3.785  -1.584  -3.657  0.00  0.00    +0.000 C 
ATOM      3  C   UNL     1       2.858  -2.661  -3.147  0.00  0.00    +0.000 C 
ATOM      4  N   UNL     1       3.646  -3.853  -2.809  0.00  0.00    +0.000 NA
ATOM      5  C   UNL     1       4.595  -3.606  -1.734  0.00  0.00    +0.000 C 
ATOM      6  C   UNL     1       5.600  -2.615  -2.240  0.00  0.00    +0.000 C 
ENDROOT
BRANCH   1   7
ATOM      7  C   UNL     1       5.931  -0.385  -3.365  0.00  0.00    +0.000 A 
ATOM      8  C   UNL     1       7.274  -0.736  -3.583  0.00  0.00    +0.000 A 
ATOM      9  C   UNL     1       8.165   0.188  -4.113  0.00  0.00    +0.000 A 
ATOM     10  C   UNL     1       7.704   1.434  -4.522  0.00  0.00    +0.000 A 
ATOM     11  C   UNL     1       6.364   1.776  -4.365  0.00  0.00    +0.000 A 
ATOM     12  C   UNL     1       5.486   0.877  -3.782  0.00  0.00    +0.000 A 
ENDBRANCH   1   7
BRANCH   1  13
ATOM     13  C   UNL     1       4.457  -0.598  -1.341  0.00  0.00    +0.000 C 
ATOM     14  O   UNL     1       5.214  -0.218  -0.470  0.00  0.00    +0.000 OA
BRANCH  13  15
ATOM     15  O   UNL     1       3.093  -0.488  -1.251  0.00  0.00    +0.000 OA
BRANCH  15  17
ATOM     16  C   UNL     1       1.084   0.088  -0.036  0.00  0.00    +0.000 C 
ATOM     17  C   UNL     1       2.605   0.103  -0.035  0.00  0.00    +0.000 C 
ENDBRANCH  15  17
ENDBRANCH  13  15
ENDBRANCH   1  13
BRANCH   4  18
ATOM     18  C   UNL     1       2.710  -4.883  -2.435  0.00  0.00    +0.000 C 
BRANCH  18  19
ATOM     19  C   UNL     1       3.338  -6.230  -2.128  0.00  0.00    +0.000 C 
BRANCH  19  20
ATOM     20  C   UNL     1       2.317  -7.258  -1.635  0.00  0.00    +0.000 C 
BRANCH  20  21
ATOM     21  C   UNL     1       1.171  -7.447  -2.764  0.00  0.00    +0.000 A 
ATOM     22  C   UNL     1       0.272  -6.436  -3.169  0.00  0.00    +0.000 A 
ATOM     23  C   UNL     1      -0.719  -6.655  -4.143  0.00  0.00    +0.000 A 
ATOM     24  C   UNL     1      -0.972  -7.932  -4.619  0.00  0.00    +0.000 A 
ATOM     25  C   UNL     1      -0.162  -8.959  -4.199  0.00  0.00    +0.000 A 
ATOM     26  C   UNL     1       0.972  -8.652  -3.450  0.00  0.00    +0.000 A 
ENDBRANCH  20  21
BRANCH  20  27
ATOM     27  C   UNL     1       3.053  -8.618  -1.229  0.00  0.00    +0.000 A 
ATOM     28  C   UNL     1       2.532  -9.925  -1.412  0.00  0.00    +0.000 A 
ATOM     29  C   UNL     1       3.221 -11.096  -1.100  0.00  0.00    +0.000 A 
ATOM     30  C   UNL     1       4.430 -11.009  -0.450  0.00  0.00    +0.000 A 
ATOM     31  C   UNL     1       4.932  -9.752  -0.129  0.00  0.00    +0.000 A 
ATOM     32  C   UNL     1       4.269  -8.579  -0.526  0.00  0.00    +0.000 A 
ENDBRANCH  20  27
BRANCH  20  33
ATOM     33  C   UNL     1       1.631  -6.767  -0.371  0.00  0.00    +0.000 C 
ATOM     34  N   UNL     1       1.063  -6.359   0.678  0.00  0.00    +0.000 NA
ENDBRANCH  20  33
ENDBRANCH  19  20
ENDBRANCH  18  19
ENDBRANCH   4  18
TORSDOF 10
