REMARK  Name = Diphenylguanidine
REMARK  2 active torsions:
REMARK  status: ('A' for Active; 'I' for Inactive)
REMARK    1  A    between atoms: N_3  and  C_4
REMARK    2  A    between atoms: N_10  and  C_11
REMARK                            x       y       z     vdW  Elec       q    Type
REMARK                         _______ _______ _______ _____ _____    ______ ____
ROOT
ATOM      1  N   UNL     1       1.093  -0.188   0.170  0.00  0.00    +0.000 NA
ATOM      2  C   UNL     1       2.375  -0.017   0.033  0.00  0.00    +0.000 C 
ATOM      3  N   UNL     1       2.977   0.943  -0.725  0.00  0.00    +0.000 N 
ATOM      4  N   UNL     1       3.174  -0.959   0.607  0.00  0.00    +0.000 N 
ATOM      5  H   UNL     1       0.620   0.513  -0.403  0.00  0.00    +0.000 HD
ATOM      6  H   UNL     1       3.962   0.813  -0.917  0.00  0.00    +0.000 HD
ATOM      7  H   UNL     1       2.653  -1.680   1.092  0.00  0.00    +0.000 HD
ENDROOT
BRANCH   3   8
ATOM      8  C   UNL     1       2.401   2.026  -1.405  0.00  0.00    +0.000 A 
ATOM      9  C   UNL     1       2.853   2.336  -2.696  0.00  0.00    +0.000 A 
ATOM     10  C   UNL     1       2.263   3.364  -3.433  0.00  0.00    +0.000 A 
ATOM     11  C   UNL     1       1.175   4.058  -2.909  0.00  0.00    +0.000 A 
ATOM     12  C   UNL     1       0.712   3.759  -1.630  0.00  0.00    +0.000 A 
ATOM     13  C   UNL     1       1.333   2.760  -0.880  0.00  0.00    +0.000 A 
ENDBRANCH   3   8
BRANCH   4  14
ATOM     14  C   UNL     1       4.560  -0.978   0.812  0.00  0.00    +0.000 A 
ATOM     15  C   UNL     1       5.261  -2.188   0.702  0.00  0.00    +0.000 A 
ATOM     16  C   UNL     1       6.650  -2.223   0.859  0.00  0.00    +0.000 A 
ATOM     17  C   UNL     1       7.358  -1.042   1.068  0.00  0.00    +0.000 A 
ATOM     18  C   UNL     1       6.676   0.166   1.170  0.00  0.00    +0.000 A 
ATOM     19  C   UNL     1       5.287   0.190   1.064  0.00  0.00    +0.000 A 
ENDBRANCH   4  14
TORSDOF 2
