REMARK  Name = Diphenhydramine
REMARK  8 active torsions:
REMARK  status: ('A' for Active; 'I' for Inactive)
REMARK    1  A    between atoms: C_1  and  N_2
REMARK    2  A    between atoms: N_2  and  C_3
REMARK    3  A    between atoms: N_2  and  C_4
REMARK    4  A    between atoms: C_4  and  C_5
REMARK    5  A    between atoms: C_5  and  O_6
REMARK    6  A    between atoms: O_6  and  C_7
REMARK    7  A    between atoms: C_7  and  C_8
REMARK    8  A    between atoms: C_7  and  C_14
REMARK                            x       y       z     vdW  Elec       q    Type
REMARK                         _______ _______ _______ _____ _____    ______ ____
ROOT
ATOM      1  C   UNL     1       6.497  -2.468   1.331  0.00  0.00    +0.000 C 
ENDROOT
BRANCH   1   2
ATOM      2  C   UNL     1       7.033  -1.149   1.995  0.00  0.00    +0.000 A 
ATOM      3  C   UNL     1       7.590  -1.047   3.273  0.00  0.00    +0.000 A 
ATOM      4  C   UNL     1       7.539   0.104   4.051  0.00  0.00    +0.000 A 
ATOM      5  C   UNL     1       7.206   1.295   3.445  0.00  0.00    +0.000 A 
ATOM      6  C   UNL     1       6.913   1.295   2.087  0.00  0.00    +0.000 A 
ATOM      7  C   UNL     1       6.852   0.093   1.364  0.00  0.00    +0.000 A 
ENDBRANCH   1   2
BRANCH   1   8
ATOM      8  C   UNL     1       6.855  -3.829   1.964  0.00  0.00    +0.000 A 
ATOM      9  C   UNL     1       6.646  -5.040   1.274  0.00  0.00    +0.000 A 
ATOM     10  C   UNL     1       6.812  -6.273   1.936  0.00  0.00    +0.000 A 
ATOM     11  C   UNL     1       7.316  -6.345   3.232  0.00  0.00    +0.000 A 
ATOM     12  C   UNL     1       7.567  -5.171   3.914  0.00  0.00    +0.000 A 
ATOM     13  C   UNL     1       7.219  -3.981   3.304  0.00  0.00    +0.000 A 
ENDBRANCH   1   8
BRANCH   1  14
ATOM     14  O   UNL     1       5.029  -2.514   1.282  0.00  0.00    +0.000 OA
BRANCH  14  15
ATOM     15  C   UNL     1       4.442  -1.409   0.605  0.00  0.00    +0.000 C 
BRANCH  15  16
ATOM     16  C   UNL     1       2.915  -1.352   0.598  0.00  0.00    +0.000 C 
BRANCH  16  18
ATOM     17  C   UNL     1       0.969  -0.092  -0.055  0.00  0.00    +0.000 C 
ATOM     18  N   UNL     1       2.431  -0.095  -0.035  0.00  0.00    +0.000 NA
ATOM     19  C   UNL     1       2.899   1.114   0.660  0.00  0.00    +0.000 C 
ENDBRANCH  16  18
ENDBRANCH  15  16
ENDBRANCH  14  15
ENDBRANCH   1  14
TORSDOF 6
