REMARK  Name = Dipivefrin
REMARK  17 active torsions:
REMARK  status: ('A' for Active; 'I' for Inactive)
REMARK    1  A    between atoms: C_1  and  N_2
REMARK    2  A    between atoms: N_2  and  C_3
REMARK    3  A    between atoms: C_3  and  C_4
REMARK    4  A    between atoms: C_4  and  O_5
REMARK    5  A    between atoms: C_4  and  C_6
REMARK    6  A    between atoms: C_8  and  O_9
REMARK    7  A    between atoms: O_9  and  C_10
REMARK    8  A    between atoms: C_10  and  C_12
REMARK    9  A    between atoms: C_12  and  C_13
REMARK   10  A    between atoms: C_12  and  C_14
REMARK   11  A    between atoms: C_12  and  C_15
REMARK   12  A    between atoms: C_16  and  O_17
REMARK   13  A    between atoms: O_17  and  C_18
REMARK   14  A    between atoms: C_18  and  C_20
REMARK   15  A    between atoms: C_20  and  C_21
REMARK   16  A    between atoms: C_20  and  C_22
REMARK   17  A    between atoms: C_20  and  C_23
REMARK                            x       y       z     vdW  Elec       q    Type
REMARK                         _______ _______ _______ _____ _____    ______ ____
ROOT
ATOM      1  C   UNL     1       4.917  -0.751  -2.744  0.00  0.00    +0.000 A 
ATOM      2  C   UNL     1       4.900  -2.041  -3.330  0.00  0.00    +0.000 A 
ATOM      3  C   UNL     1       5.434  -2.246  -4.618  0.00  0.00    +0.000 A 
ATOM      4  C   UNL     1       5.843  -1.123  -5.363  0.00  0.00    +0.000 A 
ATOM      5  C   UNL     1       5.906   0.128  -4.754  0.00  0.00    +0.000 A 
ATOM      6  C   UNL     1       5.440   0.318  -3.469  0.00  0.00    +0.000 A 
ENDROOT
BRANCH   1   7
ATOM      7  C   UNL     1       4.389  -0.424  -1.366  0.00  0.00    +0.000 C 
BRANCH   7   8
ATOM      8  O   UNL     1       4.870  -1.371  -0.413  0.00  0.00    +0.000 OA
ATOM      9  H   UNL     1       4.566  -2.245  -0.695  0.00  0.00    +0.000 HD
ENDBRANCH   7   8
BRANCH   7  10
ATOM     10  C   UNL     1       2.851  -0.368  -1.373  0.00  0.00    +0.000 C 
BRANCH  10  12
ATOM     11  C   UNL     1       0.893  -0.051  -0.027  0.00  0.00    +0.000 C 
ATOM     12  N   UNL     1       2.344  -0.035  -0.038  0.00  0.00    +0.000 NA
ATOM     13  H   UNL     1       2.725  -0.706   0.633  0.00  0.00    +0.000 HD
ENDBRANCH  10  12
ENDBRANCH   7  10
ENDBRANCH   1   7
BRANCH   3  14
ATOM     14  O   UNL     1       5.534  -3.604  -5.067  0.00  0.00    +0.000 OA
BRANCH  14  15
ATOM     15  C   UNL     1       6.517  -3.949  -5.995  0.00  0.00    +0.000 C 
ATOM     16  O   UNL     1       7.351  -3.170  -6.455  0.00  0.00    +0.000 OA
BRANCH  15  17
ATOM     17  C   UNL     1       6.641  -5.421  -6.344  0.00  0.00    +0.000 C 
ATOM     18  C   UNL     1       7.502  -6.064  -5.253  0.00  0.00    +0.000 C 
ATOM     19  C   UNL     1       5.299  -6.119  -6.508  0.00  0.00    +0.000 C 
ATOM     20  C   UNL     1       7.411  -5.505  -7.689  0.00  0.00    +0.000 C 
ENDBRANCH  15  17
ENDBRANCH  14  15
ENDBRANCH   3  14
BRANCH   4  21
ATOM     21  O   UNL     1       6.097  -1.256  -6.758  0.00  0.00    +0.000 OA
BRANCH  21  22
ATOM     22  C   UNL     1       6.799  -0.321  -7.514  0.00  0.00    +0.000 C 
ATOM     23  O   UNL     1       7.053   0.826  -7.159  0.00  0.00    +0.000 OA
BRANCH  22  24
ATOM     24  C   UNL     1       7.207  -0.843  -8.897  0.00  0.00    +0.000 C 
ATOM     25  C   UNL     1       8.390  -1.817  -8.872  0.00  0.00    +0.000 C 
ATOM     26  C   UNL     1       6.023  -1.472  -9.633  0.00  0.00    +0.000 C 
ATOM     27  C   UNL     1       7.676   0.409  -9.662  0.00  0.00    +0.000 C 
ENDBRANCH  22  24
ENDBRANCH  21  22
ENDBRANCH   4  21
TORSDOF 10
