REMARK  Name = Dipotassium phosphate
REMARK  1 active torsions:
REMARK  status: ('A' for Active; 'I' for Inactive)
REMARK    1  A    between atoms: O_3  and  P_4
REMARK                            x       y       z     vdW  Elec       q    Type
REMARK                         _______ _______ _______ _____ _____    ______ ____
ROOT
ATOM      1  K   UNL     1       3.173   0.775   2.685  0.00  0.00    +0.000 K 
ENDROOT
TORSDOF 0
REMARK  Name = Dipotassium phosphate
REMARK  1 active torsions:
REMARK  status: ('A' for Active; 'I' for Inactive)
REMARK    1  A    between atoms: O_3  and  P_4
REMARK                            x       y       z     vdW  Elec       q    Type
REMARK                         _______ _______ _______ _____ _____    ______ ____
ROOT
ATOM      1  K   UNL     2       1.275  -1.791  -1.698  0.00  0.00    +0.000 K 
ENDROOT
TORSDOF 0
REMARK  Name = Dipotassium phosphate
REMARK  1 active torsions:
REMARK  status: ('A' for Active; 'I' for Inactive)
REMARK    1  A    between atoms: O_3  and  P_4
REMARK                            x       y       z     vdW  Elec       q    Type
REMARK                         _______ _______ _______ _____ _____    ______ ____
ROOT
ATOM      1  P   UNL     3       2.653   0.050   0.041  0.00  0.00    +0.000 P 
ATOM      2  O   UNL     3       2.403   1.448   0.556  0.00  0.00    +0.000 OA
ATOM      3  O   UNL     3       2.473  -1.021   1.107  0.00  0.00    +0.000 OA
ATOM      4  O   UNL     3       4.202   0.050   0.041  0.00  0.00    +0.000 OA
ENDROOT
BRANCH   1   5
ATOM      5  O   UNL     3       0.923   0.050   0.041  0.00  0.00    +0.000 OA
ATOM      6  H   UNL     3       0.864   0.897   0.556  0.00  0.00    +0.000 HD
ENDBRANCH   1   5
TORSDOF 1
