REMARK  Name = Dipyrithione
REMARK  3 active torsions:
REMARK  status: ('A' for Active; 'I' for Inactive)
REMARK    1  A    between atoms: C_7  and  S_8
REMARK    2  A    between atoms: S_8  and  S_9
REMARK    3  A    between atoms: S_9  and  C_10
REMARK                            x       y       z     vdW  Elec       q    Type
REMARK                         _______ _______ _______ _____ _____    ______ ____
ROOT
ATOM      1  S   UNL     1      -1.092   2.749   0.000  0.00  0.00    +0.000 S 
ENDROOT
BRANCH   1   8
ATOM      2  O   UNL     1      -2.165  -0.266   0.006  0.00  0.00    +0.000 OA
ATOM      3  N   UNL     1      -0.909  -0.095   0.003  0.00  0.00    +0.000 N 
ATOM      4  C   UNL     1      -0.137  -1.251   0.003  0.00  0.00    +0.000 A 
ATOM      5  C   UNL     1       1.250  -1.224  -0.004  0.00  0.00    +0.000 A 
ATOM      6  C   UNL     1       1.898  -0.001  -0.004  0.00  0.00    +0.000 A 
ATOM      7  C   UNL     1       1.153   1.178  -0.001  0.00  0.00    +0.000 A 
ATOM      8  C   UNL     1      -0.262   1.147   0.001  0.00  0.00    +0.000 A 
ENDBRANCH   1   8
BRANCH   1   9
ATOM      9  S   UNL     1      -3.115   2.405  -0.017  0.00  0.00    +0.000 S 
BRANCH   9  10
ATOM     10  C   UNL     1      -3.967   3.966  -0.016  0.00  0.00    +0.000 A 
ATOM     11  C   UNL     1      -3.293   5.200  -0.035  0.00  0.00    +0.000 A 
ATOM     12  C   UNL     1      -3.998   6.401  -0.025  0.00  0.00    +0.000 A 
ATOM     13  C   UNL     1      -5.380   6.392  -0.001  0.00  0.00    +0.000 A 
ATOM     14  C   UNL     1      -6.051   5.173   0.010  0.00  0.00    +0.000 A 
ATOM     15  N   UNL     1      -5.372   3.959   0.003  0.00  0.00    +0.000 N 
ATOM     16  O   UNL     1      -6.070   2.890   0.014  0.00  0.00    +0.000 OA
ENDBRANCH   9  10
ENDBRANCH   1   9
TORSDOF 3
