REMARK  Name = Dipyridamole
REMARK  12 active torsions:
REMARK  status: ('A' for Active; 'I' for Inactive)
REMARK    1  A    between atoms: O_1  and  C_2
REMARK    2  A    between atoms: C_2  and  C_3
REMARK    3  A    between atoms: C_3  and  N_4
REMARK    4  A    between atoms: N_4  and  C_5
REMARK    5  A    between atoms: C_5  and  C_6
REMARK    6  A    between atoms: C_6  and  O_7
REMARK    7  A    between atoms: N_22  and  C_23
REMARK    8  A    between atoms: N_22  and  C_26
REMARK    9  A    between atoms: C_23  and  C_24
REMARK   10  A    between atoms: C_24  and  O_25
REMARK   11  A    between atoms: C_26  and  C_27
REMARK   12  A    between atoms: C_27  and  O_28
REMARK                            x       y       z     vdW  Elec       q    Type
REMARK                         _______ _______ _______ _____ _____    ______ ____
ROOT
ATOM      1  N   UNL     1       4.368  -0.361   1.447  0.00  0.00    +0.000 N 
ATOM      2  C   UNL     1       5.052  -0.654   2.649  0.00  0.00    +0.000 A 
ATOM      3  N   UNL     1       6.087   0.121   2.994  0.00  0.00    +0.000 NA
ATOM      4  C   UNL     1       6.741  -0.092   4.174  0.00  0.00    +0.000 A 
ATOM      5  C   UNL     1       6.412  -1.131   5.067  0.00  0.00    +0.000 A 
ATOM      6  N   UNL     1       7.082  -1.370   6.238  0.00  0.00    +0.000 NA
ATOM      7  C   UNL     1       8.122  -0.611   6.573  0.00  0.00    +0.000 A 
ATOM      8  N   UNL     1       8.495   0.389   5.748  0.00  0.00    +0.000 NA
ATOM      9  C   UNL     1       7.832   0.682   4.599  0.00  0.00    +0.000 A 
ATOM     10  N   UNL     1       8.274   1.810   3.888  0.00  0.00    +0.000 N 
ATOM     11  C   UNL     1       7.392   2.930   3.568  0.00  0.00    +0.000 C 
ATOM     12  C   UNL     1       7.283   3.096   2.051  0.00  0.00    +0.000 C 
ATOM     13  C   UNL     1       8.649   3.201   1.375  0.00  0.00    +0.000 C 
ATOM     14  C   UNL     1       9.585   2.078   1.839  0.00  0.00    +0.000 C 
ATOM     15  C   UNL     1       9.638   1.952   3.376  0.00  0.00    +0.000 C 
ATOM     16  N   UNL     1       8.794  -0.828   7.777  0.00  0.00    +0.000 N 
ATOM     17  C   UNL     1       5.333  -1.927   4.624  0.00  0.00    +0.000 A 
ATOM     18  N   UNL     1       4.665  -1.679   3.446  0.00  0.00    +0.000 NA
ATOM     19  N   UNL     1       4.913  -3.022   5.406  0.00  0.00    +0.000 N 
ATOM     20  C   UNL     1       4.445  -2.876   6.784  0.00  0.00    +0.000 C 
ATOM     21  C   UNL     1       5.281  -3.737   7.739  0.00  0.00    +0.000 C 
ATOM     22  C   UNL     1       5.381  -5.191   7.288  0.00  0.00    +0.000 C 
ATOM     23  C   UNL     1       5.807  -5.273   5.819  0.00  0.00    +0.000 C 
ATOM     24  C   UNL     1       4.933  -4.391   4.900  0.00  0.00    +0.000 C 
ENDROOT
BRANCH   1  25
ATOM     25  C   UNL     1       2.890  -0.341   1.553  0.00  0.00    +0.000 C 
BRANCH  25  26
ATOM     26  C   UNL     1       2.105   0.014   0.277  0.00  0.00    +0.000 C 
BRANCH  26  27
ATOM     27  O   UNL     1       0.687   0.016   0.342  0.00  0.00    +0.000 OA
ATOM     28  H   UNL     1       0.408   0.239  -0.571  0.00  0.00    +0.000 HD
ENDBRANCH  26  27
ENDBRANCH  25  26
ENDBRANCH   1  25
BRANCH   1  29
ATOM     29  C   UNL     1       5.212   0.005   0.279  0.00  0.00    +0.000 C 
BRANCH  29  30
ATOM     30  C   UNL     1       4.542   0.339  -1.069  0.00  0.00    +0.000 C 
BRANCH  30  31
ATOM     31  O   UNL     1       5.453   0.618  -2.128  0.00  0.00    +0.000 OA
ATOM     32  H   UNL     1       5.647   1.570  -2.092  0.00  0.00    +0.000 HD
ENDBRANCH  30  31
ENDBRANCH  29  30
ENDBRANCH   1  29
BRANCH  16  33
ATOM     33  C   UNL     1       9.930  -0.007   8.215  0.00  0.00    +0.000 C 
BRANCH  33  34
ATOM     34  C   UNL     1      10.349   1.168   7.342  0.00  0.00    +0.000 C 
BRANCH  34  35
ATOM     35  O   UNL     1      11.445   1.873   7.919  0.00  0.00    +0.000 OA
ATOM     36  H   UNL     1      11.089   2.351   8.685  0.00  0.00    +0.000 HD
ENDBRANCH  34  35
ENDBRANCH  33  34
ENDBRANCH  16  33
BRANCH  16  37
ATOM     37  C   UNL     1       8.415  -1.975   8.640  0.00  0.00    +0.000 C 
BRANCH  37  38
ATOM     38  C   UNL     1       9.248  -2.149   9.942  0.00  0.00    +0.000 C 
BRANCH  38  39
ATOM     39  O   UNL     1       8.827  -3.274  10.714  0.00  0.00    +0.000 OA
ATOM     40  H   UNL     1       7.930  -3.094  11.045  0.00  0.00    +0.000 HD
ENDBRANCH  38  39
ENDBRANCH  37  38
ENDBRANCH  16  37
TORSDOF 12
