REMARK  Name = Diroximel fumarate
REMARK  8 active torsions:
REMARK  status: ('A' for Active; 'I' for Inactive)
REMARK    1  A    between atoms: C_1  and  O_2
REMARK    2  A    between atoms: O_2  and  C_3
REMARK    3  A    between atoms: C_3  and  C_5
REMARK    4  A    between atoms: C_6  and  C_7
REMARK    5  A    between atoms: C_7  and  O_9
REMARK    6  A    between atoms: O_9  and  C_10
REMARK    7  A    between atoms: C_10  and  C_11
REMARK    8  A    between atoms: C_11  and  N_12
REMARK                            x       y       z     vdW  Elec       q    Type
REMARK                         _______ _______ _______ _____ _____    ______ ____
ROOT
ATOM      1  O   UNL     1       7.437  -3.026   1.910  0.00  0.00    +0.000 OA
ENDROOT
BRANCH   1   2
ATOM      2  C   UNL     1       6.887  -1.973   1.223  0.00  0.00    +0.000 C 
ATOM      3  O   UNL     1       7.521  -1.104   0.639  0.00  0.00    +0.000 OA
BRANCH   2   5
ATOM      4  C   UNL     1       4.659  -1.071   0.626  0.00  0.00    +0.000 C 
ATOM      5  C   UNL     1       5.400  -2.006   1.259  0.00  0.00    +0.000 C 
BRANCH   4   6
ATOM      6  C   UNL     1       3.172  -1.122   0.663  0.00  0.00    +0.000 C 
ATOM      7  O   UNL     1       2.538  -1.988   1.253  0.00  0.00    +0.000 OA
BRANCH   6   9
ATOM      8  C   UNL     1       1.183  -0.071  -0.056  0.00  0.00    +0.000 C 
ATOM      9  O   UNL     1       2.625  -0.092  -0.041  0.00  0.00    +0.000 OA
ENDBRANCH   6   9
ENDBRANCH   4   6
ENDBRANCH   2   5
ENDBRANCH   1   2
BRANCH   1  10
ATOM     10  C   UNL     1       8.889  -3.003   1.933  0.00  0.00    +0.000 C 
BRANCH  10  11
ATOM     11  C   UNL     1       9.522  -4.162   2.738  0.00  0.00    +0.000 C 
BRANCH  11  12
ATOM     12  N   UNL     1      10.996  -4.183   2.698  0.00  0.00    +0.000 N 
ATOM     13  C   UNL     1      11.743  -5.329   2.752  0.00  0.00    +0.000 C 
ATOM     14  O   UNL     1      11.325  -6.474   2.832  0.00  0.00    +0.000 OA
ATOM     15  C   UNL     1      13.206  -4.978   2.710  0.00  0.00    +0.000 C 
ATOM     16  C   UNL     1      13.226  -3.467   2.656  0.00  0.00    +0.000 C 
ATOM     17  C   UNL     1      11.787  -3.073   2.783  0.00  0.00    +0.000 C 
ATOM     18  O   UNL     1      11.426  -1.917   2.922  0.00  0.00    +0.000 OA
ENDBRANCH  11  12
ENDBRANCH  10  11
ENDBRANCH   1  10
TORSDOF 7
