REMARK  Name = Disopyramide
REMARK  12 active torsions:
REMARK  status: ('A' for Active; 'I' for Inactive)
REMARK    1  A    between atoms: C_1  and  C_2
REMARK    2  A    between atoms: C_2  and  C_3
REMARK    3  A    between atoms: C_2  and  N_4
REMARK    4  A    between atoms: N_4  and  C_5
REMARK    5  A    between atoms: N_4  and  C_23
REMARK    6  A    between atoms: C_5  and  C_6
REMARK    7  A    between atoms: C_6  and  C_7
REMARK    8  A    between atoms: C_7  and  C_8
REMARK    9  A    between atoms: C_7  and  C_11
REMARK   10  A    between atoms: C_7  and  C_17
REMARK   11  A    between atoms: C_23  and  C_24
REMARK   12  A    between atoms: C_23  and  C_25
REMARK                            x       y       z     vdW  Elec       q    Type
REMARK                         _______ _______ _______ _____ _____    ______ ____
ROOT
ATOM      1  C   UNL     1       0.447   3.062   2.433  0.00  0.00    +0.000 C 
ENDROOT
BRANCH   1   2
ATOM      2  C   UNL     1       1.046   4.481   2.280  0.00  0.00    +0.000 A 
ATOM      3  C   UNL     1       2.364   4.774   2.659  0.00  0.00    +0.000 A 
ATOM      4  C   UNL     1       2.793   6.083   2.799  0.00  0.00    +0.000 A 
ATOM      5  C   UNL     1       1.915   7.120   2.517  0.00  0.00    +0.000 A 
ATOM      6  C   UNL     1       0.670   6.843   1.975  0.00  0.00    +0.000 A 
ATOM      7  C   UNL     1       0.322   5.530   1.709  0.00  0.00    +0.000 A 
ENDBRANCH   1   2
BRANCH   1   8
ATOM      8  C   UNL     1      -1.132   2.969   2.478  0.00  0.00    +0.000 A 
ATOM      9  N   UNL     1      -1.735   1.762   2.296  0.00  0.00    +0.000 NA
ATOM     10  C   UNL     1      -3.092   1.701   2.306  0.00  0.00    +0.000 A 
ATOM     11  C   UNL     1      -3.912   2.813   2.350  0.00  0.00    +0.000 A 
ATOM     12  C   UNL     1      -3.307   4.041   2.490  0.00  0.00    +0.000 A 
ATOM     13  C   UNL     1      -1.936   4.087   2.692  0.00  0.00    +0.000 A 
ENDBRANCH   1   8
BRANCH   1  14
ATOM     14  C   UNL     1       0.953   2.233   3.689  0.00  0.00    +0.000 C 
ATOM     15  N   UNL     1       1.681   2.870   4.660  0.00  0.00    +0.000 N 
ATOM     16  O   UNL     1       0.770   1.037   3.848  0.00  0.00    +0.000 OA
ATOM     17  H   UNL     1       1.880   3.856   4.666  0.00  0.00    +0.000 HD
ATOM     18  H   UNL     1       2.045   2.305   5.414  0.00  0.00    +0.000 HD
ENDBRANCH   1  14
BRANCH   1  19
ATOM     19  C   UNL     1       0.922   2.312   1.175  0.00  0.00    +0.000 C 
BRANCH  19  20
ATOM     20  C   UNL     1       2.433   2.094   1.030  0.00  0.00    +0.000 C 
BRANCH  20  21
ATOM     21  N   UNL     1       2.947   1.330  -0.139  0.00  0.00    +0.000 NA
BRANCH  21  23
ATOM     22  C   UNL     1       0.890  -0.242  -0.198  0.00  0.00    +0.000 C 
ATOM     23  C   UNL     1       2.427  -0.082  -0.130  0.00  0.00    +0.000 C 
ATOM     24  C   UNL     1       2.829  -0.905  -1.355  0.00  0.00    +0.000 C 
ENDBRANCH  21  23
BRANCH  21  25
ATOM     25  C   UNL     1       4.460   1.448  -0.126  0.00  0.00    +0.000 C 
ATOM     26  C   UNL     1       5.180   0.857  -1.345  0.00  0.00    +0.000 C 
ATOM     27  C   UNL     1       4.978   2.914  -0.103  0.00  0.00    +0.000 C 
ENDBRANCH  21  25
ENDBRANCH  20  21
ENDBRANCH  19  20
ENDBRANCH   1  19
TORSDOF 8
