REMARK  Name = Disperse Blue 106
REMARK  10 active torsions:
REMARK  status: ('A' for Active; 'I' for Inactive)
REMARK    1  A    between atoms: C_1  and  C_2
REMARK    2  A    between atoms: C_2  and  N_3
REMARK    3  A    between atoms: N_3  and  C_4
REMARK    4  A    between atoms: N_3  and  C_7
REMARK    5  A    between atoms: C_4  and  C_5
REMARK    6  A    between atoms: C_5  and  O_6
REMARK    7  A    between atoms: C_10  and  N_11
REMARK    8  A    between atoms: N_12  and  C_13
REMARK    9  A    between atoms: C_16  and  N_18
REMARK   10  A    between atoms: C_21  and  C_22
REMARK                            x       y       z     vdW  Elec       q    Type
REMARK                         _______ _______ _______ _____ _____    ______ ____
ROOT
ATOM      1  C   UNL     1       4.471  -1.556   0.629  0.00  0.00    +0.000 A 
ATOM      2  C   UNL     1       5.376  -0.597   1.098  0.00  0.00    +0.000 A 
ATOM      3  C   UNL     1       6.768  -0.864   1.223  0.00  0.00    +0.000 A 
ATOM      4  C   UNL     1       7.354  -2.096   0.864  0.00  0.00    +0.000 A 
ATOM      5  C   UNL     1       6.465  -3.069   0.364  0.00  0.00    +0.000 A 
ATOM      6  C   UNL     1       6.874  -4.440  -0.112  0.00  0.00    +0.000 C 
ATOM      7  C   UNL     1       5.057  -2.783   0.271  0.00  0.00    +0.000 A 
ENDROOT
BRANCH   4   8
ATOM      8  N   UNL     1       8.758  -2.245   1.133  0.00  0.00    +0.000 NA
ATOM      9  N   UNL     1       9.331  -3.135   0.469  0.00  0.00    +0.000 NA
BRANCH   9  10
ATOM     10  C   UNL     1      10.632  -3.442   0.764  0.00  0.00    +0.000 A 
ATOM     11  N   UNL     1      11.330  -3.216   1.867  0.00  0.00    +0.000 NA
ATOM     12  C   UNL     1      12.643  -3.640   1.720  0.00  0.00    +0.000 A 
ATOM     13  C   UNL     1      12.934  -4.223   0.515  0.00  0.00    +0.000 A 
ATOM     14  S   UNL     1      11.548  -4.306  -0.459  0.00  0.00    +0.000 S 
BRANCH  13  15
ATOM     15  N   UNL     1      14.216  -4.698   0.084  0.00  0.00    +0.000 N 
ATOM     16  O   UNL     1      14.316  -5.203  -1.035  0.00  0.00    +0.000 OA
ATOM     17  O   UNL     1      15.150  -4.549   0.892  0.00  0.00    +0.000 OA
ENDBRANCH  13  15
ENDBRANCH   9  10
ENDBRANCH   4   8
BRANCH   1  18
ATOM     18  N   UNL     1       3.076  -1.315   0.515  0.00  0.00    +0.000 N 
BRANCH  18  20
ATOM     19  C   UNL     1       1.198   0.329  -0.203  0.00  0.00    +0.000 C 
ATOM     20  C   UNL     1       2.675   0.002  -0.039  0.00  0.00    +0.000 C 
ENDBRANCH  18  20
BRANCH  18  21
ATOM     21  C   UNL     1       2.177  -2.393   1.011  0.00  0.00    +0.000 C 
BRANCH  21  22
ATOM     22  C   UNL     1       0.661  -2.182   0.943  0.00  0.00    +0.000 C 
BRANCH  22  23
ATOM     23  O   UNL     1      -0.094  -3.290   1.426  0.00  0.00    +0.000 OA
ATOM     24  H   UNL     1      -0.159  -3.922   0.690  0.00  0.00    +0.000 HD
ENDBRANCH  22  23
ENDBRANCH  21  22
ENDBRANCH  18  21
ENDBRANCH   1  18
TORSDOF 8
