REMARK  Name = Distearyldimonium
REMARK  38 active torsions:
REMARK  status: ('A' for Active; 'I' for Inactive)
REMARK    1  A    between atoms: C_1  and  C_2
REMARK    2  A    between atoms: C_2  and  C_3
REMARK    3  A    between atoms: C_3  and  C_4
REMARK    4  A    between atoms: C_4  and  C_5
REMARK    5  A    between atoms: C_5  and  C_6
REMARK    6  A    between atoms: C_6  and  C_7
REMARK    7  A    between atoms: C_7  and  C_8
REMARK    8  A    between atoms: C_8  and  C_9
REMARK    9  A    between atoms: C_9  and  C_10
REMARK   10  A    between atoms: C_10  and  C_11
REMARK   11  A    between atoms: C_11  and  C_12
REMARK   12  A    between atoms: C_12  and  C_13
REMARK   13  A    between atoms: C_13  and  C_14
REMARK   14  A    between atoms: C_14  and  C_15
REMARK   15  A    between atoms: C_15  and  C_16
REMARK   16  A    between atoms: C_16  and  C_17
REMARK   17  A    between atoms: C_17  and  C_18
REMARK   18  A    between atoms: C_18  and  N_19
REMARK   19  A    between atoms: N_19  and  C_20
REMARK   20  A    between atoms: N_19  and  C_21
REMARK   21  A    between atoms: N_19  and  C_22
REMARK   22  A    between atoms: C_22  and  C_23
REMARK   23  A    between atoms: C_23  and  C_24
REMARK   24  A    between atoms: C_24  and  C_25
REMARK   25  A    between atoms: C_25  and  C_26
REMARK   26  A    between atoms: C_26  and  C_27
REMARK   27  A    between atoms: C_27  and  C_28
REMARK   28  A    between atoms: C_28  and  C_29
REMARK   29  A    between atoms: C_29  and  C_30
REMARK   30  A    between atoms: C_30  and  C_31
REMARK   31  A    between atoms: C_31  and  C_32
REMARK   32  A    between atoms: C_32  and  C_33
REMARK   33  A    between atoms: C_33  and  C_34
REMARK   34  A    between atoms: C_34  and  C_35
REMARK   35  A    between atoms: C_35  and  C_36
REMARK   36  A    between atoms: C_36  and  C_37
REMARK   37  A    between atoms: C_37  and  C_38
REMARK   38  A    between atoms: C_38  and  C_39
REMARK                            x       y       z     vdW  Elec       q    Type
REMARK                         _______ _______ _______ _____ _____    ______ ____
ROOT
ATOM      1  N   UNL     1      19.109 -10.161  -7.873  0.00  0.00    +0.000 N 
ATOM      2  C   UNL     1      18.606 -11.496  -7.316  0.00  0.00    +0.000 C 
ATOM      3  C   UNL     1      18.606  -9.949  -9.303  0.00  0.00    +0.000 C 
ENDROOT
BRANCH   1   4
ATOM      4  C   UNL     1      20.649 -10.126  -7.846  0.00  0.00    +0.000 C 
BRANCH   4   5
ATOM      5  C   UNL     1      21.236 -11.230  -8.705  0.00  0.00    +0.000 C 
BRANCH   5   6
ATOM      6  C   UNL     1      22.745 -11.204  -8.685  0.00  0.00    +0.000 C 
BRANCH   6   7
ATOM      7  C   UNL     1      23.227 -12.341  -9.570  0.00  0.00    +0.000 C 
BRANCH   7   8
ATOM      8  C   UNL     1      24.736 -12.360  -9.585  0.00  0.00    +0.000 C 
BRANCH   8   9
ATOM      9  C   UNL     1      25.216 -13.494 -10.467  0.00  0.00    +0.000 C 
BRANCH   9  10
ATOM     10  C   UNL     1      26.730 -13.500 -10.472  0.00  0.00    +0.000 C 
BRANCH  10  11
ATOM     11  C   UNL     1      27.232 -14.627 -11.349  0.00  0.00    +0.000 C 
BRANCH  11  12
ATOM     12  C   UNL     1      28.749 -14.628 -11.350  0.00  0.00    +0.000 C 
BRANCH  12  13
ATOM     13  C   UNL     1      29.257 -15.755 -12.227  0.00  0.00    +0.000 C 
BRANCH  13  14
ATOM     14  C   UNL     1      30.774 -15.758 -12.229  0.00  0.00    +0.000 C 
BRANCH  14  15
ATOM     15  C   UNL     1      31.286 -16.885 -13.107  0.00  0.00    +0.000 C 
BRANCH  15  16
ATOM     16  C   UNL     1      32.805 -16.890 -13.111  0.00  0.00    +0.000 C 
BRANCH  16  17
ATOM     17  C   UNL     1      33.321 -18.018 -13.989  0.00  0.00    +0.000 C 
BRANCH  17  18
ATOM     18  C   UNL     1      34.842 -18.026 -13.995  0.00  0.00    +0.000 C 
BRANCH  18  19
ATOM     19  C   UNL     1      35.361 -19.155 -14.874  0.00  0.00    +0.000 C 
BRANCH  19  20
ATOM     20  C   UNL     1      36.884 -19.173 -14.888  0.00  0.00    +0.000 C 
ATOM     21  C   UNL     1      37.400 -20.299 -15.764  0.00  0.00    +0.000 C 
ENDBRANCH  19  20
ENDBRANCH  18  19
ENDBRANCH  17  18
ENDBRANCH  16  17
ENDBRANCH  15  16
ENDBRANCH  14  15
ENDBRANCH  13  14
ENDBRANCH  12  13
ENDBRANCH  11  12
ENDBRANCH  10  11
ENDBRANCH   9  10
ENDBRANCH   8   9
ENDBRANCH   7   8
ENDBRANCH   6   7
ENDBRANCH   5   6
ENDBRANCH   4   5
ENDBRANCH   1   4
BRANCH   1  22
ATOM     22  C   UNL     1      18.638  -9.003  -6.972  0.00  0.00    +0.000 C 
BRANCH  22  23
ATOM     23  C   UNL     1      17.123  -8.935  -6.919  0.00  0.00    +0.000 C 
BRANCH  23  24
ATOM     24  C   UNL     1      16.651  -7.803  -6.038  0.00  0.00    +0.000 C 
BRANCH  24  25
ATOM     25  C   UNL     1      15.132  -7.824  -6.054  0.00  0.00    +0.000 C 
BRANCH  25  26
ATOM     26  C   UNL     1      14.606  -6.708  -5.185  0.00  0.00    +0.000 C 
BRANCH  26  27
ATOM     27  C   UNL     1      13.092  -6.728  -5.201  0.00  0.00    +0.000 C 
BRANCH  27  28
ATOM     28  C   UNL     1      12.579  -5.604  -4.326  0.00  0.00    +0.000 C 
BRANCH  28  29
ATOM     29  C   UNL     1      11.065  -5.606  -4.327  0.00  0.00    +0.000 C 
BRANCH  29  30
ATOM     30  C   UNL     1      10.559  -4.478  -3.450  0.00  0.00    +0.000 C 
BRANCH  30  31
ATOM     31  C   UNL     1       9.043  -4.475  -3.447  0.00  0.00    +0.000 C 
BRANCH  31  32
ATOM     32  C   UNL     1       8.534  -3.348  -2.570  0.00  0.00    +0.000 C 
BRANCH  32  33
ATOM     33  C   UNL     1       7.016  -3.343  -2.566  0.00  0.00    +0.000 C 
BRANCH  33  34
ATOM     34  C   UNL     1       6.504  -2.214  -1.688  0.00  0.00    +0.000 C 
BRANCH  34  35
ATOM     35  C   UNL     1       4.985  -2.207  -1.681  0.00  0.00    +0.000 C 
BRANCH  35  36
ATOM     36  C   UNL     1       4.468  -1.077  -0.802  0.00  0.00    +0.000 C 
BRANCH  36  37
ATOM     37  C   UNL     1       2.946  -1.068  -0.795  0.00  0.00    +0.000 C 
BRANCH  37  39
ATOM     38  C   UNL     1       0.900   0.068   0.089  0.00  0.00    +0.000 C 
ATOM     39  C   UNL     1       2.417   0.060   0.082  0.00  0.00    +0.000 C 
ENDBRANCH  37  39
ENDBRANCH  36  37
ENDBRANCH  35  36
ENDBRANCH  34  35
ENDBRANCH  33  34
ENDBRANCH  32  33
ENDBRANCH  31  32
ENDBRANCH  30  31
ENDBRANCH  29  30
ENDBRANCH  28  29
ENDBRANCH  27  28
ENDBRANCH  26  27
ENDBRANCH  25  26
ENDBRANCH  24  25
ENDBRANCH  23  24
ENDBRANCH  22  23
ENDBRANCH   1  22
TORSDOF 34
