REMARK  Name = Disulfiram
REMARK  13 active torsions:
REMARK  status: ('A' for Active; 'I' for Inactive)
REMARK    1  A    between atoms: C_1  and  C_2
REMARK    2  A    between atoms: C_2  and  N_3
REMARK    3  A    between atoms: N_3  and  C_4
REMARK    4  A    between atoms: N_3  and  C_6
REMARK    5  A    between atoms: C_4  and  C_5
REMARK    6  A    between atoms: C_6  and  S_8
REMARK    7  A    between atoms: S_8  and  S_9
REMARK    8  A    between atoms: S_9  and  C_10
REMARK    9  A    between atoms: C_10  and  N_12
REMARK   10  A    between atoms: N_12  and  C_13
REMARK   11  A    between atoms: N_12  and  C_15
REMARK   12  A    between atoms: C_13  and  C_14
REMARK   13  A    between atoms: C_15  and  C_16
REMARK                            x       y       z     vdW  Elec       q    Type
REMARK                         _______ _______ _______ _____ _____    ______ ____
ROOT
ATOM      1  S   UNL     1       4.927  -3.110  -1.662  0.00  0.00    +0.000 S 
ENDROOT
BRANCH   1   2
ATOM      2  C   UNL     1       4.466  -1.564  -0.806  0.00  0.00    +0.000 C 
ATOM      3  S   UNL     1       5.641  -0.488  -0.210  0.00  0.00    +0.000 S 
BRANCH   2   4
ATOM      4  N   UNL     1       3.046  -1.319  -0.670  0.00  0.00    +0.000 N 
BRANCH   4   6
ATOM      5  C   UNL     1       1.160   0.308   0.230  0.00  0.00    +0.000 C 
ATOM      6  C   UNL     1       2.614  -0.069   0.022  0.00  0.00    +0.000 C 
ENDBRANCH   4   6
BRANCH   4   7
ATOM      7  C   UNL     1       2.103  -2.317  -1.223  0.00  0.00    +0.000 C 
ATOM      8  C   UNL     1       0.601  -2.169  -1.141  0.00  0.00    +0.000 C 
ENDBRANCH   4   7
ENDBRANCH   2   4
ENDBRANCH   1   2
BRANCH   1   9
ATOM      9  S   UNL     1       6.978  -3.167  -1.693  0.00  0.00    +0.000 S 
BRANCH   9  10
ATOM     10  C   UNL     1       7.668  -4.593  -2.483  0.00  0.00    +0.000 C 
ATOM     11  S   UNL     1       6.655  -5.782  -3.141  0.00  0.00    +0.000 S 
BRANCH  10  12
ATOM     12  N   UNL     1       9.110  -4.675  -2.528  0.00  0.00    +0.000 N 
BRANCH  12  13
ATOM     13  C   UNL     1      10.111  -3.707  -1.992  0.00  0.00    +0.000 C 
ATOM     14  C   UNL     1       9.742  -2.421  -1.281  0.00  0.00    +0.000 C 
ENDBRANCH  12  13
BRANCH  12  15
ATOM     15  C   UNL     1       9.724  -5.868  -3.189  0.00  0.00    +0.000 C 
ATOM     16  C   UNL     1      11.254  -5.967  -3.243  0.00  0.00    +0.000 C 
ENDBRANCH  12  15
ENDBRANCH  10  12
ENDBRANCH   9  10
ENDBRANCH   1   9
TORSDOF 9
