REMARK  Name = Ditiocarb zinc
REMARK  10 active torsions:
REMARK  status: ('A' for Active; 'I' for Inactive)
REMARK    1  A    between atoms: C_2  and  C_3
REMARK    2  A    between atoms: C_3  and  N_4
REMARK    3  A    between atoms: N_4  and  C_5
REMARK    4  A    between atoms: N_4  and  C_7
REMARK    5  A    between atoms: C_5  and  C_6
REMARK    6  A    between atoms: C_10  and  C_11
REMARK    7  A    between atoms: C_11  and  N_12
REMARK    8  A    between atoms: N_12  and  C_13
REMARK    9  A    between atoms: N_12  and  C_15
REMARK   10  A    between atoms: C_13  and  C_14
REMARK                            x       y       z     vdW  Elec       q    Type
REMARK                         _______ _______ _______ _____ _____    ______ ____
ROOT
ATOM      1 ZN   UNL     1       1.805  -2.955  -0.042  0.00  0.00    +0.000 Zn
ENDROOT
TORSDOF 0
REMARK  Name = Ditiocarb zinc
REMARK  10 active torsions:
REMARK  status: ('A' for Active; 'I' for Inactive)
REMARK    1  A    between atoms: C_2  and  C_3
REMARK    2  A    between atoms: C_3  and  N_4
REMARK    3  A    between atoms: N_4  and  C_5
REMARK    4  A    between atoms: N_4  and  C_7
REMARK    5  A    between atoms: C_5  and  C_6
REMARK    6  A    between atoms: C_10  and  C_11
REMARK    7  A    between atoms: C_11  and  N_12
REMARK    8  A    between atoms: N_12  and  C_13
REMARK    9  A    between atoms: N_12  and  C_15
REMARK   10  A    between atoms: C_13  and  C_14
REMARK                            x       y       z     vdW  Elec       q    Type
REMARK                         _______ _______ _______ _____ _____    ______ ____
ROOT
ATOM      1  N   UNL     2       3.882   0.795   1.288  0.00  0.00    +0.000 N 
ENDROOT
BRANCH   1   2
ATOM      2  C   UNL     2       5.304   1.533   1.623  0.00  0.00    +0.000 C 
ATOM      3  S   UNL     2       7.086   1.893   0.954  0.00  0.00    +0.000 SA
ATOM      4  S   UNL     2       5.426   2.523   3.129  0.00  0.00    +0.000 S 
ENDBRANCH   1   2
BRANCH   1   6
ATOM      5  C   UNL     2       1.631  -0.347  -1.260  0.00  0.00    +0.000 C 
ATOM      6  C   UNL     2       3.323  -0.212  -0.462  0.00  0.00    +0.000 C 
ENDBRANCH   1   6
BRANCH   1   7
ATOM      7  C   UNL     2       2.787   2.006   2.109  0.00  0.00    +0.000 C 
ATOM      8  C   UNL     2       1.219   1.859   2.185  0.00  0.00    +0.000 C 
ENDBRANCH   1   7
TORSDOF 3
REMARK  Name = Ditiocarb zinc
REMARK  10 active torsions:
REMARK  status: ('A' for Active; 'I' for Inactive)
REMARK    1  A    between atoms: C_2  and  C_3
REMARK    2  A    between atoms: C_3  and  N_4
REMARK    3  A    between atoms: N_4  and  C_5
REMARK    4  A    between atoms: N_4  and  C_7
REMARK    5  A    between atoms: C_5  and  C_6
REMARK    6  A    between atoms: C_10  and  C_11
REMARK    7  A    between atoms: C_11  and  N_12
REMARK    8  A    between atoms: N_12  and  C_13
REMARK    9  A    between atoms: N_12  and  C_15
REMARK   10  A    between atoms: C_13  and  C_14
REMARK                            x       y       z     vdW  Elec       q    Type
REMARK                         _______ _______ _______ _____ _____    ______ ____
ROOT
ATOM      1  N   UNL     3       2.434   1.643  -0.174  0.00  0.00    +0.000 N 
ENDROOT
BRANCH   1   2
ATOM      2  C   UNL     3       4.114   1.825  -0.597  0.00  0.00    +0.000 C 
ATOM      3  S   UNL     3       5.566   0.231  -0.908  0.00  0.00    +0.000 SA
ATOM      4  S   UNL     3       4.651   3.432  -0.939  0.00  0.00    +0.000 S 
ENDBRANCH   1   2
BRANCH   1   6
ATOM      5  C   UNL     3      -0.032  -0.180   0.677  0.00  0.00    +0.000 C 
ATOM      6  C   UNL     3       1.722   0.117   0.853  0.00  0.00    +0.000 C 
ENDBRANCH   1   6
BRANCH   1   7
ATOM      7  C   UNL     3       1.544   3.087  -0.124  0.00  0.00    +0.000 C 
ATOM      8  C   UNL     3      -0.081   2.801  -0.188  0.00  0.00    +0.000 C 
ENDBRANCH   1   7
TORSDOF 3
