REMARK  Name = DL-alpha tocopheryl acetate
REMARK  23 active torsions:
REMARK  status: ('A' for Active; 'I' for Inactive)
REMARK    1  A    between atoms: C_1  and  C_2
REMARK    2  A    between atoms: C_2  and  C_3
REMARK    3  A    between atoms: C_2  and  C_4
REMARK    4  A    between atoms: C_4  and  C_5
REMARK    5  A    between atoms: C_5  and  C_6
REMARK    6  A    between atoms: C_6  and  C_7
REMARK    7  A    between atoms: C_7  and  C_8
REMARK    8  A    between atoms: C_7  and  C_9
REMARK    9  A    between atoms: C_9  and  C_10
REMARK   10  A    between atoms: C_10  and  C_11
REMARK   11  A    between atoms: C_11  and  C_12
REMARK   12  A    between atoms: C_12  and  C_13
REMARK   13  A    between atoms: C_12  and  C_14
REMARK   14  A    between atoms: C_14  and  C_15
REMARK   15  A    between atoms: C_15  and  C_16
REMARK   16  A    between atoms: C_16  and  C_17
REMARK   17  A    between atoms: C_17  and  C_18
REMARK   18  A    between atoms: C_24  and  C_25
REMARK   19  A    between atoms: C_26  and  C_27
REMARK   20  A    between atoms: C_28  and  O_29
REMARK   21  A    between atoms: O_29  and  C_30
REMARK   22  A    between atoms: C_30  and  C_31
REMARK   23  A    between atoms: C_33  and  C_34
REMARK                            x       y       z     vdW  Elec       q    Type
REMARK                         _______ _______ _______ _____ _____    ______ ____
ROOT
ATOM      1  C   UNL     1      14.605  -8.445   1.416  0.00  0.00    +0.000 C 
ATOM      2  C   UNL     1      15.058  -9.417   0.308  0.00  0.00    +0.000 C 
ATOM      3  C   UNL     1      15.010  -8.891   2.818  0.00  0.00    +0.000 C 
ATOM      4  C   UNL     1      16.474  -9.102   2.791  0.00  0.00    +0.000 C 
ATOM      5  C   UNL     1      17.146  -7.923   2.147  0.00  0.00    +0.000 A 
ATOM      6  C   UNL     1      16.496  -6.964   1.394  0.00  0.00    +0.000 A 
ATOM      7  O   UNL     1      15.155  -7.123   1.131  0.00  0.00    +0.000 OA
ATOM      8  C   UNL     1      17.221  -5.873   0.845  0.00  0.00    +0.000 A 
ATOM      9  C   UNL     1      16.479  -4.828   0.046  0.00  0.00    +0.000 C 
ATOM     10  C   UNL     1      18.645  -5.773   1.038  0.00  0.00    +0.000 A 
ATOM     11  C   UNL     1      19.429  -4.630   0.434  0.00  0.00    +0.000 C 
ATOM     12  C   UNL     1      19.284  -6.809   1.758  0.00  0.00    +0.000 A 
ATOM     13  C   UNL     1      18.521  -7.902   2.212  0.00  0.00    +0.000 A 
ATOM     14  C   UNL     1      19.085  -9.173   2.705  0.00  0.00    +0.000 C 
ENDROOT
BRANCH   1  15
ATOM     15  C   UNL     1      13.071  -8.428   1.416  0.00  0.00    +0.000 C 
BRANCH  15  16
ATOM     16  C   UNL     1      12.550  -7.042   1.183  0.00  0.00    +0.000 C 
BRANCH  16  17
ATOM     17  C   UNL     1      11.041  -7.030   1.203  0.00  0.00    +0.000 C 
BRANCH  17  18
ATOM     18  C   UNL     1      10.544  -5.608   0.975  0.00  0.00    +0.000 C 
ATOM     19  C   UNL     1      11.070  -4.661   2.068  0.00  0.00    +0.000 C 
BRANCH  18  20
ATOM     20  C   UNL     1       9.019  -5.640   0.940  0.00  0.00    +0.000 C 
BRANCH  20  21
ATOM     21  C   UNL     1       8.490  -4.253   0.671  0.00  0.00    +0.000 C 
BRANCH  21  22
ATOM     22  C   UNL     1       6.981  -4.221   0.686  0.00  0.00    +0.000 C 
BRANCH  22  23
ATOM     23  C   UNL     1       6.490  -2.790   0.469  0.00  0.00    +0.000 C 
ATOM     24  C   UNL     1       7.016  -1.844   1.564  0.00  0.00    +0.000 C 
BRANCH  23  25
ATOM     25  C   UNL     1       4.963  -2.812   0.438  0.00  0.00    +0.000 C 
BRANCH  25  26
ATOM     26  C   UNL     1       4.430  -1.422   0.171  0.00  0.00    +0.000 C 
BRANCH  26  27
ATOM     27  C   UNL     1       2.918  -1.389   0.183  0.00  0.00    +0.000 C 
BRANCH  27  29
ATOM     28  C   UNL     1       0.890   0.032  -0.060  0.00  0.00    +0.000 C 
ATOM     29  C   UNL     1       2.412   0.040  -0.040  0.00  0.00    +0.000 C 
ATOM     30  C   UNL     1       2.909   0.997   1.048  0.00  0.00    +0.000 C 
ENDBRANCH  27  29
ENDBRANCH  26  27
ENDBRANCH  25  26
ENDBRANCH  23  25
ENDBRANCH  22  23
ENDBRANCH  21  22
ENDBRANCH  20  21
ENDBRANCH  18  20
ENDBRANCH  17  18
ENDBRANCH  16  17
ENDBRANCH  15  16
ENDBRANCH   1  15
BRANCH  12  31
ATOM     31  O   UNL     1      20.766  -6.778   1.981  0.00  0.00    +0.000 OA
BRANCH  31  32
ATOM     32  C   UNL     1      21.861  -7.424   2.744  0.00  0.00    +0.000 C 
ATOM     33  C   UNL     1      21.370  -8.498   3.678  0.00  0.00    +0.000 C 
ATOM     34  O   UNL     1      23.022  -7.158   2.604  0.00  0.00    +0.000 OA
ENDBRANCH  31  32
ENDBRANCH  12  31
TORSDOF 14
