REMARK  Name = DL-dimyristoylphosphatidylcholine
REMARK  41 active torsions:
REMARK  status: ('A' for Active; 'I' for Inactive)
REMARK    1  A    between atoms: C_1  and  C_2
REMARK    2  A    between atoms: C_2  and  C_3
REMARK    3  A    between atoms: C_3  and  C_4
REMARK    4  A    between atoms: C_4  and  C_5
REMARK    5  A    between atoms: C_5  and  C_6
REMARK    6  A    between atoms: C_6  and  C_7
REMARK    7  A    between atoms: C_7  and  C_8
REMARK    8  A    between atoms: C_8  and  C_9
REMARK    9  A    between atoms: C_9  and  C_10
REMARK   10  A    between atoms: C_10  and  C_11
REMARK   11  A    between atoms: C_11  and  C_12
REMARK   12  A    between atoms: C_12  and  C_13
REMARK   13  A    between atoms: C_13  and  C_14
REMARK   14  A    between atoms: C_14  and  O_16
REMARK   15  A    between atoms: O_16  and  C_17
REMARK   16  A    between atoms: C_17  and  C_18
REMARK   17  A    between atoms: C_18  and  C_19
REMARK   18  A    between atoms: C_18  and  O_31
REMARK   19  A    between atoms: C_19  and  O_20
REMARK   20  A    between atoms: O_20  and  P_21
REMARK   21  A    between atoms: P_21  and  O_24
REMARK   22  A    between atoms: O_24  and  C_25
REMARK   23  A    between atoms: C_25  and  C_26
REMARK   24  A    between atoms: C_26  and  N_27
REMARK   25  A    between atoms: N_27  and  C_28
REMARK   26  A    between atoms: N_27  and  C_29
REMARK   27  A    between atoms: N_27  and  C_30
REMARK   28  A    between atoms: O_31  and  C_32
REMARK   29  A    between atoms: C_32  and  C_34
REMARK   30  A    between atoms: C_34  and  C_35
REMARK   31  A    between atoms: C_35  and  C_36
REMARK   32  A    between atoms: C_36  and  C_37
REMARK   33  A    between atoms: C_37  and  C_38
REMARK   34  A    between atoms: C_38  and  C_39
REMARK   35  A    between atoms: C_39  and  C_40
REMARK   36  A    between atoms: C_40  and  C_41
REMARK   37  A    between atoms: C_41  and  C_42
REMARK   38  A    between atoms: C_42  and  C_43
REMARK   39  A    between atoms: C_43  and  C_44
REMARK   40  A    between atoms: C_44  and  C_45
REMARK   41  A    between atoms: C_45  and  C_46
REMARK                            x       y       z     vdW  Elec       q    Type
REMARK                         _______ _______ _______ _____ _____    ______ ____
ROOT
ATOM      1  C   UNL     1      17.358  -9.048  -6.638  0.00  0.00    +0.000 C 
ENDROOT
BRANCH   1   2
ATOM      2  O   UNL     1      18.821  -9.063  -6.646  0.00  0.00    +0.000 OA
BRANCH   2   3
ATOM      3  C   UNL     1      19.401 -10.092  -7.334  0.00  0.00    +0.000 C 
ATOM      4  O   UNL     1      18.782 -10.991  -7.900  0.00  0.00    +0.000 OA
BRANCH   3   5
ATOM      5  C   UNL     1      20.913 -10.016  -7.333  0.00  0.00    +0.000 C 
BRANCH   5   6
ATOM      6  C   UNL     1      21.484 -11.165  -8.175  0.00  0.00    +0.000 C 
BRANCH   6   7
ATOM      7  C   UNL     1      23.005 -11.180  -8.188  0.00  0.00    +0.000 C 
BRANCH   7   8
ATOM      8  C   UNL     1      23.517 -12.344  -9.030  0.00  0.00    +0.000 C 
BRANCH   8   9
ATOM      9  C   UNL     1      25.037 -12.359  -9.040  0.00  0.00    +0.000 C 
BRANCH   9  10
ATOM     10  C   UNL     1      25.549 -13.518  -9.878  0.00  0.00    +0.000 C 
BRANCH  10  11
ATOM     11  C   UNL     1      27.068 -13.525  -9.883  0.00  0.00    +0.000 C 
BRANCH  11  12
ATOM     12  C   UNL     1      27.581 -14.683 -10.720  0.00  0.00    +0.000 C 
BRANCH  12  13
ATOM     13  C   UNL     1      29.099 -14.689 -10.724  0.00  0.00    +0.000 C 
BRANCH  13  14
ATOM     14  C   UNL     1      29.612 -15.848 -11.562  0.00  0.00    +0.000 C 
BRANCH  14  15
ATOM     15  C   UNL     1      31.132 -15.857 -11.568  0.00  0.00    +0.000 C 
BRANCH  15  16
ATOM     16  C   UNL     1      31.655 -17.015 -12.405  0.00  0.00    +0.000 C 
ATOM     17  C   UNL     1      33.171 -17.021 -12.409  0.00  0.00    +0.000 C 
ENDBRANCH  15  16
ENDBRANCH  14  15
ENDBRANCH  13  14
ENDBRANCH  12  13
ENDBRANCH  11  12
ENDBRANCH  10  11
ENDBRANCH   9  10
ENDBRANCH   8   9
ENDBRANCH   7   8
ENDBRANCH   6   7
ENDBRANCH   5   6
ENDBRANCH   3   5
ENDBRANCH   2   3
ENDBRANCH   1   2
BRANCH   1  18
ATOM     18  C   UNL     1      16.828  -8.885  -8.057  0.00  0.00    +0.000 C 
BRANCH  18  19
ATOM     19  O   UNL     1      15.415  -8.896  -8.068  0.00  0.00    +0.000 OA
BRANCH  19  20
ATOM     20  P   UNL     1      14.838  -8.729  -9.691  0.00  0.00    +0.000 P 
ATOM     21  O   UNL     1      13.413  -9.056  -9.236  0.00  0.00    +0.000 OA
ATOM     22  O   UNL     1      15.361  -7.296  -9.775  0.00  0.00    +0.000 OA
BRANCH  20  23
ATOM     23  O   UNL     1      14.262  -8.563 -11.313  0.00  0.00    +0.000 OA
BRANCH  23  24
ATOM     24  C   UNL     1      14.077  -9.830 -11.854  0.00  0.00    +0.000 C 
BRANCH  24  25
ATOM     25  C   UNL     1      13.571  -9.693 -13.271  0.00  0.00    +0.000 C 
BRANCH  25  26
ATOM     26  N   UNL     1      13.364 -11.082 -13.914  0.00  0.00    +0.000 N 
ATOM     27  C   UNL     1      14.682 -11.839 -13.953  0.00  0.00    +0.000 C 
ATOM     28  C   UNL     1      12.324 -11.861 -13.115  0.00  0.00    +0.000 C 
ATOM     29  C   UNL     1      12.858 -10.887 -15.329  0.00  0.00    +0.000 C 
ENDBRANCH  25  26
ENDBRANCH  24  25
ENDBRANCH  23  24
ENDBRANCH  20  23
ENDBRANCH  19  20
ENDBRANCH  18  19
ENDBRANCH   1  18
BRANCH   1  30
ATOM     30  C   UNL     1      16.823  -7.889  -5.757  0.00  0.00    +0.000 C 
BRANCH  30  31
ATOM     31  O   UNL     1      15.379  -7.915  -5.652  0.00  0.00    +0.000 OA
BRANCH  31  32
ATOM     32  C   UNL     1      14.810  -6.850  -5.032  0.00  0.00    +0.000 C 
ATOM     33  O   UNL     1      15.451  -5.977  -4.451  0.00  0.00    +0.000 OA
BRANCH  32  34
ATOM     34  C   UNL     1      13.291  -6.896  -5.094  0.00  0.00    +0.000 C 
BRANCH  34  35
ATOM     35  C   UNL     1      12.702  -5.749  -4.266  0.00  0.00    +0.000 C 
BRANCH  35  36
ATOM     36  C   UNL     1      11.178  -5.742  -4.259  0.00  0.00    +0.000 C 
BRANCH  36  37
ATOM     37  C   UNL     1      10.661  -4.578  -3.417  0.00  0.00    +0.000 C 
BRANCH  37  38
ATOM     38  C   UNL     1       9.140  -4.564  -3.407  0.00  0.00    +0.000 C 
BRANCH  38  39
ATOM     39  C   UNL     1       8.628  -3.405  -2.568  0.00  0.00    +0.000 C 
BRANCH  39  40
ATOM     40  C   UNL     1       7.109  -3.398  -2.564  0.00  0.00    +0.000 C 
BRANCH  40  41
ATOM     41  C   UNL     1       6.596  -2.240  -1.726  0.00  0.00    +0.000 C 
BRANCH  41  42
ATOM     42  C   UNL     1       5.078  -2.233  -1.722  0.00  0.00    +0.000 C 
BRANCH  42  43
ATOM     43  C   UNL     1       4.564  -1.074  -0.884  0.00  0.00    +0.000 C 
BRANCH  43  44
ATOM     44  C   UNL     1       3.044  -1.066  -0.878  0.00  0.00    +0.000 C 
BRANCH  44  46
ATOM     45  C   UNL     1       1.005   0.098  -0.037  0.00  0.00    +0.000 C 
ATOM     46  C   UNL     1       2.521   0.093  -0.041  0.00  0.00    +0.000 C 
ENDBRANCH  44  46
ENDBRANCH  43  44
ENDBRANCH  42  43
ENDBRANCH  41  42
ENDBRANCH  40  41
ENDBRANCH  39  40
ENDBRANCH  38  39
ENDBRANCH  37  38
ENDBRANCH  36  37
ENDBRANCH  35  36
ENDBRANCH  34  35
ENDBRANCH  32  34
ENDBRANCH  31  32
ENDBRANCH  30  31
ENDBRANCH   1  30
TORSDOF 36
