REMARK  Name = DL-dimyristoylphosphatidylglycerol
REMARK  41 active torsions:
REMARK  status: ('A' for Active; 'I' for Inactive)
REMARK    1  A    between atoms: C_1  and  C_2
REMARK    2  A    between atoms: C_2  and  C_3
REMARK    3  A    between atoms: C_3  and  C_4
REMARK    4  A    between atoms: C_4  and  C_5
REMARK    5  A    between atoms: C_5  and  C_6
REMARK    6  A    between atoms: C_6  and  C_7
REMARK    7  A    between atoms: C_7  and  C_8
REMARK    8  A    between atoms: C_8  and  C_9
REMARK    9  A    between atoms: C_9  and  C_10
REMARK   10  A    between atoms: C_10  and  C_11
REMARK   11  A    between atoms: C_11  and  C_12
REMARK   12  A    between atoms: C_12  and  C_13
REMARK   13  A    between atoms: C_13  and  C_14
REMARK   14  A    between atoms: C_14  and  O_16
REMARK   15  A    between atoms: O_16  and  C_17
REMARK   16  A    between atoms: C_17  and  C_18
REMARK   17  A    between atoms: C_18  and  C_19
REMARK   18  A    between atoms: C_18  and  O_30
REMARK   19  A    between atoms: C_19  and  O_20
REMARK   20  A    between atoms: O_20  and  P_21
REMARK   21  A    between atoms: P_21  and  O_22
REMARK   22  A    between atoms: P_21  and  O_24
REMARK   23  A    between atoms: O_24  and  C_25
REMARK   24  A    between atoms: C_25  and  C_26
REMARK   25  A    between atoms: C_26  and  O_27
REMARK   26  A    between atoms: C_26  and  C_28
REMARK   27  A    between atoms: C_28  and  O_29
REMARK   28  A    between atoms: O_30  and  C_31
REMARK   29  A    between atoms: C_31  and  C_33
REMARK   30  A    between atoms: C_33  and  C_34
REMARK   31  A    between atoms: C_34  and  C_35
REMARK   32  A    between atoms: C_35  and  C_36
REMARK   33  A    between atoms: C_36  and  C_37
REMARK   34  A    between atoms: C_37  and  C_38
REMARK   35  A    between atoms: C_38  and  C_39
REMARK   36  A    between atoms: C_39  and  C_40
REMARK   37  A    between atoms: C_40  and  C_41
REMARK   38  A    between atoms: C_41  and  C_42
REMARK   39  A    between atoms: C_42  and  C_43
REMARK   40  A    between atoms: C_43  and  C_44
REMARK   41  A    between atoms: C_44  and  C_45
REMARK                            x       y       z     vdW  Elec       q    Type
REMARK                         _______ _______ _______ _____ _____    ______ ____
ROOT
ATOM      1  C   UNL     1      17.417   1.048 -11.265  0.00  0.00    +0.000 C 
ENDROOT
BRANCH   1   2
ATOM      2  O   UNL     1      18.876   1.056 -11.280  0.00  0.00    +0.000 OA
BRANCH   2   3
ATOM      3  C   UNL     1      19.453   1.114 -12.520  0.00  0.00    +0.000 C 
ATOM      4  O   UNL     1      18.817   1.154 -13.570  0.00  0.00    +0.000 OA
BRANCH   3   5
ATOM      5  C   UNL     1      20.964   1.149 -12.462  0.00  0.00    +0.000 C 
BRANCH   5   6
ATOM      6  C   UNL     1      21.533   1.296 -13.879  0.00  0.00    +0.000 C 
BRANCH   6   7
ATOM      7  C   UNL     1      23.054   1.301 -13.898  0.00  0.00    +0.000 C 
BRANCH   7   8
ATOM      8  C   UNL     1      23.566   1.438 -15.328  0.00  0.00    +0.000 C 
BRANCH   8   9
ATOM      9  C   UNL     1      25.087   1.440 -15.345  0.00  0.00    +0.000 C 
BRANCH   9  10
ATOM     10  C   UNL     1      25.599   1.577 -16.769  0.00  0.00    +0.000 C 
BRANCH  10  11
ATOM     11  C   UNL     1      27.118   1.577 -16.777  0.00  0.00    +0.000 C 
BRANCH  11  12
ATOM     12  C   UNL     1      27.630   1.714 -18.199  0.00  0.00    +0.000 C 
BRANCH  12  13
ATOM     13  C   UNL     1      29.148   1.715 -18.207  0.00  0.00    +0.000 C 
BRANCH  13  14
ATOM     14  C   UNL     1      29.662   1.851 -19.631  0.00  0.00    +0.000 C 
BRANCH  14  15
ATOM     15  C   UNL     1      31.182   1.852 -19.641  0.00  0.00    +0.000 C 
BRANCH  15  16
ATOM     16  C   UNL     1      31.705   1.989 -21.063  0.00  0.00    +0.000 C 
ATOM     17  C   UNL     1      33.221   1.989 -21.070  0.00  0.00    +0.000 C 
ENDBRANCH  15  16
ENDBRANCH  14  15
ENDBRANCH  13  14
ENDBRANCH  12  13
ENDBRANCH  11  12
ENDBRANCH  10  11
ENDBRANCH   9  10
ENDBRANCH   8   9
ENDBRANCH   7   8
ENDBRANCH   6   7
ENDBRANCH   5   6
ENDBRANCH   3   5
ENDBRANCH   2   3
ENDBRANCH   1   2
BRANCH   1  18
ATOM     18  C   UNL     1      16.876   0.866  -9.824  0.00  0.00    +0.000 C 
BRANCH  18  19
ATOM     19  O   UNL     1      15.427   0.796  -9.802  0.00  0.00    +0.000 OA
BRANCH  19  20
ATOM     20  C   UNL     1      14.856   0.767  -8.569  0.00  0.00    +0.000 C 
ATOM     21  O   UNL     1      15.506   0.720  -7.524  0.00  0.00    +0.000 OA
BRANCH  20  22
ATOM     22  C   UNL     1      13.339   0.792  -8.636  0.00  0.00    +0.000 C 
BRANCH  22  23
ATOM     23  C   UNL     1      12.751   0.660  -7.227  0.00  0.00    +0.000 C 
BRANCH  23  24
ATOM     24  C   UNL     1      11.228   0.660  -7.217  0.00  0.00    +0.000 C 
BRANCH  24  25
ATOM     25  C   UNL     1      10.710   0.523  -5.788  0.00  0.00    +0.000 C 
BRANCH  25  26
ATOM     26  C   UNL     1       9.190   0.521  -5.772  0.00  0.00    +0.000 C 
BRANCH  26  27
ATOM     27  C   UNL     1       8.677   0.384  -4.347  0.00  0.00    +0.000 C 
BRANCH  27  28
ATOM     28  C   UNL     1       7.158   0.384  -4.339  0.00  0.00    +0.000 C 
BRANCH  28  29
ATOM     29  C   UNL     1       6.646   0.247  -2.916  0.00  0.00    +0.000 C 
BRANCH  29  30
ATOM     30  C   UNL     1       5.127   0.246  -2.908  0.00  0.00    +0.000 C 
BRANCH  30  31
ATOM     31  C   UNL     1       4.614   0.110  -1.485  0.00  0.00    +0.000 C 
BRANCH  31  32
ATOM     32  C   UNL     1       3.094   0.109  -1.475  0.00  0.00    +0.000 C 
BRANCH  32  34
ATOM     33  C   UNL     1       1.055  -0.029  -0.045  0.00  0.00    +0.000 C 
ATOM     34  C   UNL     1       2.571  -0.028  -0.052  0.00  0.00    +0.000 C 
ENDBRANCH  32  34
ENDBRANCH  31  32
ENDBRANCH  30  31
ENDBRANCH  29  30
ENDBRANCH  28  29
ENDBRANCH  27  28
ENDBRANCH  26  27
ENDBRANCH  25  26
ENDBRANCH  24  25
ENDBRANCH  23  24
ENDBRANCH  22  23
ENDBRANCH  20  22
ENDBRANCH  19  20
ENDBRANCH  18  19
ENDBRANCH   1  18
BRANCH   1  35
ATOM     35  C   UNL     1      16.881   2.358 -11.840  0.00  0.00    +0.000 C 
BRANCH  35  36
ATOM     36  O   UNL     1      15.464   2.353 -11.866  0.00  0.00    +0.000 OA
BRANCH  36  37
ATOM     37  P   UNL     1      14.888   3.837 -12.542  0.00  0.00    +0.000 P 
ATOM     38  O   UNL     1      13.548   3.612 -11.846  0.00  0.00    +0.000 OA
BRANCH  37  39
ATOM     39  O   UNL     1      14.895   3.023 -13.965  0.00  0.00    +0.000 OA
ATOM     40  H   UNL     1      14.912   2.062 -13.786  0.00  0.00    +0.000 HD
ENDBRANCH  37  39
BRANCH  37  41
ATOM     41  O   UNL     1      14.311   5.321 -13.219  0.00  0.00    +0.000 OA
BRANCH  41  42
ATOM     42  C   UNL     1      14.122   5.255 -14.631  0.00  0.00    +0.000 C 
BRANCH  42  43
ATOM     43  C   UNL     1      13.630   6.558 -15.220  0.00  0.00    +0.000 C 
BRANCH  43  44
ATOM     44  O   UNL     1      14.579   7.597 -14.960  0.00  0.00    +0.000 OA
ATOM     45  H   UNL     1      15.419   7.343 -15.378  0.00  0.00    +0.000 HD
ENDBRANCH  43  44
BRANCH  43  46
ATOM     46  C   UNL     1      13.452   6.355 -16.734  0.00  0.00    +0.000 C 
BRANCH  46  47
ATOM     47  O   UNL     1      12.961   7.529 -17.364  0.00  0.00    +0.000 OA
ATOM     48  H   UNL     1      12.179   7.817 -16.863  0.00  0.00    +0.000 HD
ENDBRANCH  46  47
ENDBRANCH  43  46
ENDBRANCH  42  43
ENDBRANCH  41  42
ENDBRANCH  37  41
ENDBRANCH  36  37
ENDBRANCH  35  36
ENDBRANCH   1  35
TORSDOF 39
