REMARK  Name = DL-Methylephedrine
REMARK  7 active torsions:
REMARK  status: ('A' for Active; 'I' for Inactive)
REMARK    1  A    between atoms: C_1  and  C_2
REMARK    2  A    between atoms: C_2  and  C_3
REMARK    3  A    between atoms: C_2  and  N_11
REMARK    4  A    between atoms: C_3  and  O_4
REMARK    5  A    between atoms: C_3  and  C_5
REMARK    6  A    between atoms: N_11  and  C_12
REMARK    7  A    between atoms: N_11  and  C_13
REMARK                            x       y       z     vdW  Elec       q    Type
REMARK                         _______ _______ _______ _____ _____    ______ ____
ROOT
ATOM      1  C   UNL     1       2.944   1.431   0.393  0.00  0.00    +0.000 C 
ENDROOT
BRANCH   1   2
ATOM      2  C   UNL     1       2.429   2.438  -0.644  0.00  0.00    +0.000 A 
ATOM      3  C   UNL     1       2.855   3.770  -0.640  0.00  0.00    +0.000 A 
ATOM      4  C   UNL     1       2.378   4.762  -1.478  0.00  0.00    +0.000 A 
ATOM      5  C   UNL     1       1.485   4.410  -2.465  0.00  0.00    +0.000 A 
ATOM      6  C   UNL     1       1.049   3.089  -2.542  0.00  0.00    +0.000 A 
ATOM      7  C   UNL     1       1.484   2.117  -1.626  0.00  0.00    +0.000 A 
ENDBRANCH   1   2
BRANCH   1   9
ATOM      8  C   UNL     1       5.024  -0.075   0.597  0.00  0.00    +0.000 C 
ATOM      9  C   UNL     1       4.535   1.394   0.539  0.00  0.00    +0.000 C 
BRANCH   9  10
ATOM     10  N   UNL     1       5.114   2.130   1.724  0.00  0.00    +0.000 NA
ATOM     11  C   UNL     1       6.582   2.157   1.677  0.00  0.00    +0.000 C 
ATOM     12  C   UNL     1       4.701   3.525   1.857  0.00  0.00    +0.000 C 
ENDBRANCH   9  10
ENDBRANCH   1   9
BRANCH   1  13
ATOM     13  O   UNL     1       2.412   0.127   0.090  0.00  0.00    +0.000 OA
ATOM     14  H   UNL     1       2.743  -0.118  -0.790  0.00  0.00    +0.000 HD
ENDBRANCH   1  13
TORSDOF 4
