REMARK  Name = Dobutamine
REMARK  11 active torsions:
REMARK  status: ('A' for Active; 'I' for Inactive)
REMARK    1  A    between atoms: C_1  and  C_2
REMARK    2  A    between atoms: C_2  and  C_3
REMARK    3  A    between atoms: C_2  and  N_12
REMARK    4  A    between atoms: C_3  and  C_4
REMARK    5  A    between atoms: C_4  and  C_5
REMARK    6  A    between atoms: C_8  and  O_9
REMARK    7  A    between atoms: N_12  and  C_13
REMARK    8  A    between atoms: C_13  and  C_14
REMARK    9  A    between atoms: C_14  and  C_15
REMARK   10  A    between atoms: C_17  and  O_18
REMARK   11  A    between atoms: C_19  and  O_20
REMARK                            x       y       z     vdW  Elec       q    Type
REMARK                         _______ _______ _______ _____ _____    ______ ____
ROOT
ATOM      1  N   UNL     1       2.955   1.454  -0.082  0.00  0.00    +0.000 NA
ATOM      2  H   UNL     1       2.591   2.018   0.686  0.00  0.00    +0.000 HD
ENDROOT
BRANCH   1   4
ATOM      3  C   UNL     1       0.903   0.143   0.056  0.00  0.00    +0.000 C 
ATOM      4  C   UNL     1       2.434   0.079   0.032  0.00  0.00    +0.000 C 
BRANCH   4   5
ATOM      5  C   UNL     1       2.911  -0.764  -1.153  0.00  0.00    +0.000 C 
BRANCH   5   6
ATOM      6  C   UNL     1       2.453  -2.217  -1.117  0.00  0.00    +0.000 C 
BRANCH   6   7
ATOM      7  C   UNL     1       2.926  -3.022  -2.304  0.00  0.00    +0.000 A 
ATOM      8  C   UNL     1       2.729  -4.406  -2.290  0.00  0.00    +0.000 A 
ATOM      9  C   UNL     1       3.034  -5.175  -3.414  0.00  0.00    +0.000 A 
ATOM     10  C   UNL     1       3.542  -4.551  -4.552  0.00  0.00    +0.000 A 
ATOM     11  C   UNL     1       3.777  -3.190  -4.573  0.00  0.00    +0.000 A 
ATOM     12  C   UNL     1       3.474  -2.425  -3.453  0.00  0.00    +0.000 A 
BRANCH  10  13
ATOM     13  O   UNL     1       3.816  -5.250  -5.689  0.00  0.00    +0.000 OA
ATOM     14  H   UNL     1       3.563  -6.174  -5.548  0.00  0.00    +0.000 HD
ENDBRANCH  10  13
ENDBRANCH   6   7
ENDBRANCH   5   6
ENDBRANCH   4   5
ENDBRANCH   1   4
BRANCH   1  15
ATOM     15  C   UNL     1       4.422   1.499  -0.074  0.00  0.00    +0.000 C 
BRANCH  15  16
ATOM     16  C   UNL     1       4.944   2.931  -0.177  0.00  0.00    +0.000 C 
BRANCH  16  17
ATOM     17  C   UNL     1       6.456   2.934  -0.200  0.00  0.00    +0.000 A 
ATOM     18  C   UNL     1       7.191   2.847   0.994  0.00  0.00    +0.000 A 
ATOM     19  C   UNL     1       8.582   2.830   0.942  0.00  0.00    +0.000 A 
ATOM     20  C   UNL     1       9.242   2.897  -0.282  0.00  0.00    +0.000 A 
ATOM     21  C   UNL     1       8.531   2.959  -1.470  0.00  0.00    +0.000 A 
ATOM     22  C   UNL     1       7.136   2.970  -1.429  0.00  0.00    +0.000 A 
BRANCH  19  23
ATOM     23  O   UNL     1       9.346   2.746   2.074  0.00  0.00    +0.000 OA
ATOM     24  H   UNL     1       8.749   2.677   2.838  0.00  0.00    +0.000 HD
ENDBRANCH  19  23
BRANCH  20  25
ATOM     25  O   UNL     1      10.607   2.902  -0.330  0.00  0.00    +0.000 OA
ATOM     26  H   UNL     1      10.888   2.869   0.606  0.00  0.00    +0.000 HD
ENDBRANCH  20  25
ENDBRANCH  16  17
ENDBRANCH  15  16
ENDBRANCH   1  15
TORSDOF 10
