REMARK  Name = Doconexent
REMARK  16 active torsions:
REMARK  status: ('A' for Active; 'I' for Inactive)
REMARK    1  A    between atoms: C_1  and  C_2
REMARK    2  A    between atoms: C_2  and  C_3
REMARK    3  A    between atoms: C_4  and  C_5
REMARK    4  A    between atoms: C_5  and  C_6
REMARK    5  A    between atoms: C_7  and  C_8
REMARK    6  A    between atoms: C_8  and  C_9
REMARK    7  A    between atoms: C_10  and  C_11
REMARK    8  A    between atoms: C_11  and  C_12
REMARK    9  A    between atoms: C_13  and  C_14
REMARK   10  A    between atoms: C_14  and  C_15
REMARK   11  A    between atoms: C_16  and  C_17
REMARK   12  A    between atoms: C_17  and  C_18
REMARK   13  A    between atoms: C_19  and  C_20
REMARK   14  A    between atoms: C_20  and  C_21
REMARK   15  A    between atoms: C_21  and  C_22
REMARK   16  A    between atoms: C_22  and  O_23
REMARK                            x       y       z     vdW  Elec       q    Type
REMARK                         _______ _______ _______ _____ _____    ______ ____
ROOT
ATOM      1  C   UNL     1       8.045   3.767   4.131  0.00  0.00    +0.000 C 
ATOM      2  C   UNL     1       7.051   4.378   4.791  0.00  0.00    +0.000 C 
ENDROOT
BRANCH   1   3
ATOM      3  C   UNL     1       7.775   2.769   3.054  0.00  0.00    +0.000 C 
BRANCH   3   5
ATOM      4  C   UNL     1       8.987   1.302   1.471  0.00  0.00    +0.000 C 
ATOM      5  C   UNL     1       9.024   2.213   2.454  0.00  0.00    +0.000 C 
BRANCH   4   6
ATOM      6  C   UNL     1       7.696   0.793   0.922  0.00  0.00    +0.000 C 
BRANCH   6   8
ATOM      7  C   UNL     1       6.864  -0.787  -0.785  0.00  0.00    +0.000 C 
ATOM      8  C   UNL     1       7.896  -0.210  -0.162  0.00  0.00    +0.000 C 
BRANCH   7   9
ATOM      9  C   UNL     1       5.453  -0.476  -0.448  0.00  0.00    +0.000 C 
BRANCH   9  11
ATOM     10  C   UNL     1       3.216  -1.229  -1.261  0.00  0.00    +0.000 C 
ATOM     11  C   UNL     1       4.537  -1.290  -1.328  0.00  0.00    +0.000 C 
BRANCH  10  13
ATOM     12  C   UNL     1       1.142  -0.312  -0.268  0.00  0.00    +0.000 C 
ATOM     13  C   UNL     1       2.713  -0.327  -0.287  0.00  0.00    +0.000 C 
ENDBRANCH  10  13
ENDBRANCH   9  11
ENDBRANCH   7   9
ENDBRANCH   6   8
ENDBRANCH   4   6
ENDBRANCH   3   5
ENDBRANCH   1   3
BRANCH   2  14
ATOM     14  C   UNL     1       5.618   4.095   4.485  0.00  0.00    +0.000 C 
BRANCH  14  15
ATOM     15  C   UNL     1       4.683   4.885   5.338  0.00  0.00    +0.000 C 
ATOM     16  C   UNL     1       3.355   4.773   5.217  0.00  0.00    +0.000 C 
BRANCH  16  17
ATOM     17  C   UNL     1       2.737   3.857   4.228  0.00  0.00    +0.000 C 
BRANCH  17  18
ATOM     18  C   UNL     1       1.248   3.923   4.300  0.00  0.00    +0.000 C 
ATOM     19  C   UNL     1       0.482   3.191   3.509  0.00  0.00    +0.000 C 
BRANCH  19  20
ATOM     20  C   UNL     1       1.132   2.320   2.569  0.00  0.00    +0.000 C 
BRANCH  20  21
ATOM     21  C   UNL     1       0.038   1.650   1.846  0.00  0.00    +0.000 C 
BRANCH  21  22
ATOM     22  C   UNL     1       0.794   0.760   0.879  0.00  0.00    +0.000 C 
ATOM     23  O   UNL     1      -0.327  -0.249  -0.212  0.00  0.00    +0.000 OA
BRANCH  22  24
ATOM     24  O   UNL     1       2.132   0.955   1.096  0.00  0.00    +0.000 OA
ATOM     25  H   UNL     1       2.954   1.322   1.492  0.00  0.00    +0.000 HD
ENDBRANCH  22  24
ENDBRANCH  21  22
ENDBRANCH  20  21
ENDBRANCH  19  20
ENDBRANCH  17  18
ENDBRANCH  16  17
ENDBRANCH  14  15
ENDBRANCH   2  14
TORSDOF 15
