REMARK  Name = Docusate
REMARK  23 active torsions:
REMARK  status: ('A' for Active; 'I' for Inactive)
REMARK    1  A    between atoms: C_1  and  C_2
REMARK    2  A    between atoms: C_2  and  C_3
REMARK    3  A    between atoms: C_3  and  C_4
REMARK    4  A    between atoms: C_4  and  C_5
REMARK    5  A    between atoms: C_5  and  C_6
REMARK    6  A    between atoms: C_5  and  C_8
REMARK    7  A    between atoms: C_6  and  C_7
REMARK    8  A    between atoms: C_8  and  O_9
REMARK    9  A    between atoms: O_9  and  C_10
REMARK   10  A    between atoms: C_10  and  C_12
REMARK   11  A    between atoms: C_12  and  C_13
REMARK   12  A    between atoms: C_13  and  C_14
REMARK   13  A    between atoms: C_13  and  S_25
REMARK   14  A    between atoms: C_14  and  O_16
REMARK   15  A    between atoms: O_16  and  C_17
REMARK   16  A    between atoms: C_17  and  C_18
REMARK   17  A    between atoms: C_18  and  C_19
REMARK   18  A    between atoms: C_18  and  C_21
REMARK   19  A    between atoms: C_19  and  C_20
REMARK   20  A    between atoms: C_21  and  C_22
REMARK   21  A    between atoms: C_22  and  C_23
REMARK   22  A    between atoms: C_23  and  C_24
REMARK   23  A    between atoms: S_25  and  O_26
REMARK                            x       y       z     vdW  Elec       q    Type
REMARK                         _______ _______ _______ _____ _____    ______ ____
ROOT
ATOM      1  C   UNL     1      10.569   3.474   4.714  0.00  0.00    +0.000 C 
ENDROOT
BRANCH   1   2
ATOM      2  S   UNL     1      11.198   4.358   6.159  0.00  0.00    +0.000 S 
ATOM      3  O   UNL     1      10.486   3.879   7.341  0.00  0.00    +0.000 OA
ATOM      4  O   UNL     1      12.630   4.412   6.145  0.00  0.00    +0.000 OA
BRANCH   2   5
ATOM      5  O   UNL     1      10.598   5.835   5.875  0.00  0.00    +0.000 OA
ATOM      6  H   UNL     1       9.686   5.930   6.208  0.00  0.00    +0.000 HD
ENDBRANCH   2   5
ENDBRANCH   1   2
BRANCH   1   7
ATOM      7  C   UNL     1      11.177   4.131   3.474  0.00  0.00    +0.000 C 
ATOM      8  O   UNL     1      11.749   5.207   3.432  0.00  0.00    +0.000 OA
BRANCH   7   9
ATOM      9  O   UNL     1      10.989   3.372   2.347  0.00  0.00    +0.000 OA
BRANCH   9  10
ATOM     10  C   UNL     1      11.332   3.998   1.073  0.00  0.00    +0.000 C 
BRANCH  10  11
ATOM     11  C   UNL     1      10.795   3.191  -0.147  0.00  0.00    +0.000 C 
BRANCH  11  12
ATOM     12  C   UNL     1       9.286   3.245  -0.274  0.00  0.00    +0.000 C 
ATOM     13  C   UNL     1       8.647   2.770   0.941  0.00  0.00    +0.000 C 
ENDBRANCH  11  12
BRANCH  11  14
ATOM     14  C   UNL     1      11.297   3.752  -1.476  0.00  0.00    +0.000 C 
BRANCH  14  15
ATOM     15  C   UNL     1      10.776   2.927  -2.661  0.00  0.00    +0.000 C 
BRANCH  15  16
ATOM     16  C   UNL     1      11.249   3.508  -3.973  0.00  0.00    +0.000 C 
ATOM     17  C   UNL     1      10.715   2.677  -5.124  0.00  0.00    +0.000 C 
ENDBRANCH  15  16
ENDBRANCH  14  15
ENDBRANCH  11  14
ENDBRANCH  10  11
ENDBRANCH   9  10
ENDBRANCH   7   9
ENDBRANCH   1   7
BRANCH   1  18
ATOM     18  C   UNL     1       9.020   3.404   4.755  0.00  0.00    +0.000 C 
BRANCH  18  19
ATOM     19  C   UNL     1       8.484   2.321   3.835  0.00  0.00    +0.000 C 
ATOM     20  O   UNL     1       9.184   1.388   3.464  0.00  0.00    +0.000 OA
BRANCH  19  21
ATOM     21  O   UNL     1       7.172   2.504   3.467  0.00  0.00    +0.000 OA
BRANCH  21  22
ATOM     22  C   UNL     1       6.599   1.529   2.543  0.00  0.00    +0.000 C 
BRANCH  22  23
ATOM     23  C   UNL     1       5.075   1.600   2.439  0.00  0.00    +0.000 C 
BRANCH  23  24
ATOM     24  C   UNL     1       4.566   1.045   3.765  0.00  0.00    +0.000 C 
ATOM     25  C   UNL     1       3.074   1.108   3.977  0.00  0.00    +0.000 C 
ENDBRANCH  23  24
BRANCH  23  26
ATOM     26  C   UNL     1       4.632   0.828   1.154  0.00  0.00    +0.000 C 
BRANCH  26  27
ATOM     27  C   UNL     1       3.131   0.833   0.941  0.00  0.00    +0.000 C 
BRANCH  27  29
ATOM     28  C   UNL     1       1.088  -0.004  -0.125  0.00  0.00    +0.000 C 
ATOM     29  C   UNL     1       2.612   0.011  -0.217  0.00  0.00    +0.000 C 
ENDBRANCH  27  29
ENDBRANCH  26  27
ENDBRANCH  23  26
ENDBRANCH  22  23
ENDBRANCH  21  22
ENDBRANCH  19  21
ENDBRANCH  18  19
ENDBRANCH   1  18
TORSDOF 19
