REMARK  Name = Dofetilide
REMARK  14 active torsions:
REMARK  status: ('A' for Active; 'I' for Inactive)
REMARK    1  A    between atoms: C_1  and  N_2
REMARK    2  A    between atoms: N_2  and  C_3
REMARK    3  A    between atoms: N_2  and  C_17
REMARK    4  A    between atoms: C_3  and  C_4
REMARK    5  A    between atoms: C_4  and  O_5
REMARK    6  A    between atoms: O_5  and  C_6
REMARK    7  A    between atoms: C_9  and  N_10
REMARK    8  A    between atoms: N_10  and  S_11
REMARK    9  A    between atoms: S_11  and  C_12
REMARK   10  A    between atoms: C_17  and  C_18
REMARK   11  A    between atoms: C_18  and  C_19
REMARK   12  A    between atoms: C_22  and  N_23
REMARK   13  A    between atoms: N_23  and  S_24
REMARK   14  A    between atoms: S_24  and  C_25
REMARK                            x       y       z     vdW  Elec       q    Type
REMARK                         _______ _______ _______ _____ _____    ______ ____
ROOT
ATOM      1  C   UNL     1       0.996   0.049   0.046  0.00  0.00    +0.000 C 
ATOM      2  N   UNL     1       2.463   0.117   0.011  0.00  0.00    +0.000 NA
ENDROOT
BRANCH   2   3
ATOM      3  C   UNL     1       2.926   1.518   0.020  0.00  0.00    +0.000 C 
BRANCH   3   4
ATOM      4  C   UNL     1       2.465   2.309  -1.203  0.00  0.00    +0.000 C 
BRANCH   4   5
ATOM      5  O   UNL     1       3.047   3.613  -1.136  0.00  0.00    +0.000 OA
BRANCH   5   6
ATOM      6  C   UNL     1       2.660   4.432  -2.156  0.00  0.00    +0.000 A 
ATOM      7  C   UNL     1       3.650   5.233  -2.718  0.00  0.00    +0.000 A 
ATOM      8  C   UNL     1       3.328   6.157  -3.722  0.00  0.00    +0.000 A 
ATOM      9  C   UNL     1       2.018   6.247  -4.204  0.00  0.00    +0.000 A 
ATOM     10  C   UNL     1       1.032   5.480  -3.586  0.00  0.00    +0.000 A 
ATOM     11  C   UNL     1       1.344   4.572  -2.578  0.00  0.00    +0.000 A 
BRANCH   9  12
ATOM     12  N   UNL     1       1.764   6.998  -5.390  0.00  0.00    +0.000 N 
ATOM     13  H   UNL     1       2.501   7.576  -5.792  0.00  0.00    +0.000 HD
BRANCH  12  14
ATOM     14  S   UNL     1       0.250   7.214  -6.069  0.00  0.00    +0.000 S 
ATOM     15  C   UNL     1      -0.201   5.576  -6.647  0.00  0.00    +0.000 C 
ATOM     16  O   UNL     1      -0.681   7.622  -5.046  0.00  0.00    +0.000 OA
ATOM     17  O   UNL     1       0.460   8.037  -7.248  0.00  0.00    +0.000 OA
ENDBRANCH  12  14
ENDBRANCH   9  12
ENDBRANCH   5   6
ENDBRANCH   4   5
ENDBRANCH   3   4
ENDBRANCH   2   3
BRANCH   2  18
ATOM     18  C   UNL     1       3.003  -0.616   1.169  0.00  0.00    +0.000 C 
BRANCH  18  19
ATOM     19  C   UNL     1       4.542  -0.685   1.177  0.00  0.00    +0.000 C 
BRANCH  19  20
ATOM     20  C   UNL     1       4.987  -1.425   2.405  0.00  0.00    +0.000 A 
ATOM     21  C   UNL     1       4.934  -2.819   2.469  0.00  0.00    +0.000 A 
ATOM     22  C   UNL     1       5.102  -3.467   3.697  0.00  0.00    +0.000 A 
ATOM     23  C   UNL     1       5.408  -2.730   4.847  0.00  0.00    +0.000 A 
ATOM     24  C   UNL     1       5.462  -1.341   4.759  0.00  0.00    +0.000 A 
ATOM     25  C   UNL     1       5.279  -0.690   3.551  0.00  0.00    +0.000 A 
BRANCH  23  26
ATOM     26  N   UNL     1       5.784  -3.424   6.032  0.00  0.00    +0.000 N 
ATOM     27  H   UNL     1       5.699  -4.438   6.076  0.00  0.00    +0.000 HD
BRANCH  26  28
ATOM     28  S   UNL     1       6.165  -2.675   7.478  0.00  0.00    +0.000 S 
ATOM     29  C   UNL     1       7.687  -1.792   7.119  0.00  0.00    +0.000 C 
ATOM     30  O   UNL     1       5.135  -1.720   7.808  0.00  0.00    +0.000 OA
ATOM     31  O   UNL     1       6.500  -3.747   8.398  0.00  0.00    +0.000 OA
ENDBRANCH  26  28
ENDBRANCH  23  26
ENDBRANCH  19  20
ENDBRANCH  18  19
ENDBRANCH   2  18
TORSDOF 11
