REMARK  Name = Dolasetron
REMARK  3 active torsions:
REMARK  status: ('A' for Active; 'I' for Inactive)
REMARK    1  A    between atoms: C_2  and  O_17
REMARK    2  A    between atoms: O_17  and  C_18
REMARK    3  A    between atoms: C_18  and  C_20
REMARK                            x       y       z     vdW  Elec       q    Type
REMARK                         _______ _______ _______ _____ _____    ______ ____
ROOT
ATOM      1  O   UNL     1       2.434  -0.040   1.252  0.00  0.00    +0.000 OA
ENDROOT
BRANCH   1   2
ATOM      2  C   UNL     1       2.067   0.071  -0.150  0.00  0.00    +0.000 C 
ATOM      3  C   UNL     1       2.586   1.317  -0.810  0.00  0.00    +0.000 C 
ATOM      4  C   UNL     1       2.289   1.397  -2.337  0.00  0.00    +0.000 C 
ATOM      5  C   UNL     1       0.912   1.719  -2.398  0.00  0.00    +0.000 C 
ATOM      6  C   UNL     1       0.160  -0.128  -2.579  0.00  0.00    +0.000 C 
ATOM      7  C   UNL     1       0.861  -1.462  -2.683  0.00  0.00    +0.000 C 
ATOM      8  C   UNL     1       2.201  -0.966  -2.519  0.00  0.00    +0.000 C 
ATOM      9  C   UNL     1       2.552  -1.107  -0.967  0.00  0.00    +0.000 C 
ATOM     10  N   UNL     1       1.762   0.452  -3.339  0.00  0.00    +0.000 NA
ATOM     11  C   UNL     1      -0.305   0.631  -3.555  0.00  0.00    +0.000 C 
ATOM     12  C   UNL     1       0.347   0.064  -4.598  0.00  0.00    +0.000 C 
ATOM     13  O   UNL     1       0.216   1.027  -5.413  0.00  0.00    +0.000 OA
ENDBRANCH   1   2
BRANCH   1  14
ATOM     14  C   UNL     1       1.561   0.177   2.309  0.00  0.00    +0.000 C 
ATOM     15  O   UNL     1       1.980   0.190   3.463  0.00  0.00    +0.000 OA
BRANCH  14  16
ATOM     16  C   UNL     1       0.138   0.396   2.023  0.00  0.00    +0.000 A 
ATOM     17  C   UNL     1      -0.666   1.363   2.604  0.00  0.00    +0.000 A 
ATOM     18  N   UNL     1      -1.919   1.291   2.041  0.00  0.00    +0.000 N 
ATOM     19  C   UNL     1      -1.983   0.237   1.157  0.00  0.00    +0.000 A 
ATOM     20  C   UNL     1      -0.733  -0.372   1.187  0.00  0.00    +0.000 A 
ATOM     21  C   UNL     1      -0.545  -1.530   0.412  0.00  0.00    +0.000 A 
ATOM     22  C   UNL     1      -1.544  -2.009  -0.425  0.00  0.00    +0.000 A 
ATOM     23  C   UNL     1      -2.778  -1.387  -0.436  0.00  0.00    +0.000 A 
ATOM     24  C   UNL     1      -3.029  -0.261   0.363  0.00  0.00    +0.000 A 
ATOM     25  H   UNL     1      -2.697   1.895   2.271  0.00  0.00    +0.000 HD
ENDBRANCH  14  16
ENDBRANCH   1  14
TORSDOF 3
