REMARK  Name = Dolutegravir
REMARK  5 active torsions:
REMARK  status: ('A' for Active; 'I' for Inactive)
REMARK    1  A    between atoms: C_6  and  C_7
REMARK    2  A    between atoms: N_9  and  C_10
REMARK    3  A    between atoms: C_10  and  C_11
REMARK    4  A    between atoms: C_21  and  O_22
REMARK    5  A    between atoms: C_27  and  C_28
REMARK                            x       y       z     vdW  Elec       q    Type
REMARK                         _______ _______ _______ _____ _____    ______ ____
ROOT
ATOM      1  C   UNL     1       2.090  -0.093  -0.022  0.00  0.00    +0.000 C 
ATOM      2  C   UNL     1       2.592   0.644  -1.275  0.00  0.00    +0.000 C 
ATOM      3  N   UNL     1       2.322  -0.107  -2.523  0.00  0.00    +0.000 N 
ATOM      4  C   UNL     1       2.417   0.516  -3.766  0.00  0.00    +0.000 A 
ATOM      5  C   UNL     1       2.269  -0.085  -4.966  0.00  0.00    +0.000 A 
ATOM      6  C   UNL     1       2.019  -1.554  -4.923  0.00  0.00    +0.000 A 
ATOM      7  O   UNL     1       1.879  -2.267  -5.918  0.00  0.00    +0.000 OA
ATOM      8  C   UNL     1       1.935  -2.235  -3.603  0.00  0.00    +0.000 A 
ATOM      9  C   UNL     1       2.069  -1.488  -2.487  0.00  0.00    +0.000 A 
ATOM     10  C   UNL     1       2.003  -2.214  -1.168  0.00  0.00    +0.000 C 
ATOM     11  O   UNL     1       1.656  -3.392  -1.094  0.00  0.00    +0.000 OA
ATOM     12  N   UNL     1       2.426  -1.488  -0.055  0.00  0.00    +0.000 N 
ATOM     13  C   UNL     1       3.333  -2.131   0.872  0.00  0.00    +0.000 C 
ATOM     14  C   UNL     1       2.719  -3.399   1.463  0.00  0.00    +0.000 C 
ATOM     15  C   UNL     1       3.832  -1.283   2.024  0.00  0.00    +0.000 C 
ATOM     16  C   UNL     1       3.237   0.089   2.166  0.00  0.00    +0.000 C 
ATOM     17  O   UNL     1       2.492   0.645   1.116  0.00  0.00    +0.000 OA
ENDROOT
BRANCH   5  18
ATOM     18  C   UNL     1       2.341   0.619  -6.283  0.00  0.00    +0.000 C 
ATOM     19  O   UNL     1       2.192   0.034  -7.357  0.00  0.00    +0.000 OA
ATOM     20  N   UNL     1       2.574   1.963  -6.252  0.00  0.00    +0.000 N 
ATOM     21  H   UNL     1       2.680   2.447  -5.375  0.00  0.00    +0.000 HD
BRANCH  20  22
ATOM     22  C   UNL     1       2.668   2.761  -7.453  0.00  0.00    +0.000 C 
BRANCH  22  23
ATOM     23  C   UNL     1       2.886   4.230  -7.180  0.00  0.00    +0.000 A 
ATOM     24  C   UNL     1       2.817   5.142  -8.244  0.00  0.00    +0.000 A 
ATOM     25  C   UNL     1       2.771   6.514  -7.983  0.00  0.00    +0.000 A 
ATOM     26  C   UNL     1       3.042   6.980  -6.702  0.00  0.00    +0.000 A 
ATOM     27  F   UNL     1       3.113   8.297  -6.477  0.00  0.00    +0.000 F 
ATOM     28  C   UNL     1       3.251   6.102  -5.656  0.00  0.00    +0.000 A 
ATOM     29  C   UNL     1       3.098   4.746  -5.891  0.00  0.00    +0.000 A 
ATOM     30  F   UNL     1       3.130   3.931  -4.824  0.00  0.00    +0.000 F 
ENDBRANCH  22  23
ENDBRANCH  20  22
ENDBRANCH   5  18
BRANCH   8  31
ATOM     31  O   UNL     1       1.746  -3.605  -3.637  0.00  0.00    +0.000 OA
ATOM     32  H   UNL     1       1.659  -3.846  -4.583  0.00  0.00    +0.000 HD
ENDBRANCH   8  31
TORSDOF 4
