REMARK  Name = Domiphen
REMARK  18 active torsions:
REMARK  status: ('A' for Active; 'I' for Inactive)
REMARK    1  A    between atoms: C_1  and  C_2
REMARK    2  A    between atoms: C_2  and  C_3
REMARK    3  A    between atoms: C_3  and  C_4
REMARK    4  A    between atoms: C_4  and  C_5
REMARK    5  A    between atoms: C_5  and  C_6
REMARK    6  A    between atoms: C_6  and  C_7
REMARK    7  A    between atoms: C_7  and  C_8
REMARK    8  A    between atoms: C_8  and  C_9
REMARK    9  A    between atoms: C_9  and  C_10
REMARK   10  A    between atoms: C_10  and  C_11
REMARK   11  A    between atoms: C_11  and  C_12
REMARK   12  A    between atoms: C_12  and  N_13
REMARK   13  A    between atoms: N_13  and  C_14
REMARK   14  A    between atoms: N_13  and  C_15
REMARK   15  A    between atoms: N_13  and  C_16
REMARK   16  A    between atoms: C_16  and  C_17
REMARK   17  A    between atoms: C_17  and  O_18
REMARK   18  A    between atoms: O_18  and  C_19
REMARK                            x       y       z     vdW  Elec       q    Type
REMARK                         _______ _______ _______ _____ _____    ______ ____
ROOT
ATOM      1  C   UNL     1      12.629  -7.211   0.797  0.00  0.00    +0.000 C 
ENDROOT
BRANCH   1   2
ATOM      2  N   UNL     1      13.107  -8.666   0.962  0.00  0.00    +0.000 N 
ATOM      3  C   UNL     1      12.599  -9.229   2.291  0.00  0.00    +0.000 C 
ATOM      4  C   UNL     1      12.606  -9.507  -0.216  0.00  0.00    +0.000 C 
BRANCH   2   5
ATOM      5  C   UNL     1      14.661  -8.648   0.973  0.00  0.00    +0.000 C 
BRANCH   5   6
ATOM      6  C   UNL     1      15.249 -10.052   1.130  0.00  0.00    +0.000 C 
BRANCH   6   7
ATOM      7  O   UNL     1      16.662  -9.978   1.193  0.00  0.00    +0.000 OA
BRANCH   7   8
ATOM      8  C   UNL     1      17.255 -11.214   1.238  0.00  0.00    +0.000 A 
ATOM      9  C   UNL     1      18.394 -11.298   2.038  0.00  0.00    +0.000 A 
ATOM     10  C   UNL     1      19.149 -12.469   2.046  0.00  0.00    +0.000 A 
ATOM     11  C   UNL     1      18.746 -13.570   1.297  0.00  0.00    +0.000 A 
ATOM     12  C   UNL     1      17.589 -13.502   0.522  0.00  0.00    +0.000 A 
ATOM     13  C   UNL     1      16.851 -12.320   0.485  0.00  0.00    +0.000 A 
ENDBRANCH   7   8
ENDBRANCH   6   7
ENDBRANCH   5   6
ENDBRANCH   2   5
ENDBRANCH   1   2
BRANCH   1  14
ATOM     14  C   UNL     1      11.111  -7.141   0.787  0.00  0.00    +0.000 C 
BRANCH  14  15
ATOM     15  C   UNL     1      10.621  -5.725   0.630  0.00  0.00    +0.000 C 
BRANCH  15  16
ATOM     16  C   UNL     1       9.103  -5.755   0.633  0.00  0.00    +0.000 C 
BRANCH  16  17
ATOM     17  C   UNL     1       8.580  -4.348   0.477  0.00  0.00    +0.000 C 
BRANCH  17  18
ATOM     18  C   UNL     1       7.066  -4.361   0.479  0.00  0.00    +0.000 C 
BRANCH  18  19
ATOM     19  C   UNL     1       6.555  -2.943   0.322  0.00  0.00    +0.000 C 
BRANCH  19  20
ATOM     20  C   UNL     1       5.039  -2.938   0.321  0.00  0.00    +0.000 C 
BRANCH  20  21
ATOM     21  C   UNL     1       4.528  -1.516   0.163  0.00  0.00    +0.000 C 
BRANCH  21  22
ATOM     22  C   UNL     1       3.008  -1.506   0.162  0.00  0.00    +0.000 C 
BRANCH  22  24
ATOM     23  C   UNL     1       0.967  -0.078   0.004  0.00  0.00    +0.000 C 
ATOM     24  C   UNL     1       2.484  -0.086   0.005  0.00  0.00    +0.000 C 
ENDBRANCH  22  24
ENDBRANCH  21  22
ENDBRANCH  20  21
ENDBRANCH  19  20
ENDBRANCH  18  19
ENDBRANCH  17  18
ENDBRANCH  16  17
ENDBRANCH  15  16
ENDBRANCH  14  15
ENDBRANCH   1  14
TORSDOF 15
