REMARK  Name = Domperidone
REMARK  5 active torsions:
REMARK  status: ('A' for Active; 'I' for Inactive)
REMARK    1  A    between atoms: N_8  and  C_9
REMARK    2  A    between atoms: N_12  and  C_13
REMARK    3  A    between atoms: C_13  and  C_14
REMARK    4  A    between atoms: C_14  and  C_15
REMARK    5  A    between atoms: C_15  and  N_16
REMARK                            x       y       z     vdW  Elec       q    Type
REMARK                         _______ _______ _______ _____ _____    ______ ____
ROOT
ATOM      1  C   UNL     1       8.053   0.631  -0.104  0.00  0.00    +0.000 C 
ATOM      2  C   UNL     1       8.609   1.770   0.766  0.00  0.00    +0.000 C 
ATOM      3  C   UNL     1       7.894   3.095   0.603  0.00  0.00    +0.000 C 
ATOM      4  N   UNL     1       7.794   3.485  -0.810  0.00  0.00    +0.000 NA
ATOM      5  C   UNL     1       7.196   2.429  -1.643  0.00  0.00    +0.000 C 
ATOM      6  C   UNL     1       7.907   1.090  -1.548  0.00  0.00    +0.000 C 
ENDROOT
BRANCH   1  14
ATOM      7 CL   UNL     1       1.015  -0.021  -0.145  0.00  0.00    +0.000 Cl
ATOM      8  C   UNL     1       2.736  -0.009  -0.094  0.00  0.00    +0.000 A 
ATOM      9  C   UNL     1       3.447  -1.209  -0.081  0.00  0.00    +0.000 A 
ATOM     10  C   UNL     1       4.823  -1.120   0.035  0.00  0.00    +0.000 A 
ATOM     11  C   UNL     1       5.512   0.088   0.180  0.00  0.00    +0.000 A 
ATOM     12  C   UNL     1       4.789   1.262   0.183  0.00  0.00    +0.000 A 
ATOM     13  C   UNL     1       3.401   1.219  -0.005  0.00  0.00    +0.000 A 
ATOM     14  N   UNL     1       6.906  -0.200   0.281  0.00  0.00    +0.000 N 
ATOM     15  C   UNL     1       7.036  -1.620   0.098  0.00  0.00    +0.000 A 
ATOM     16  O   UNL     1       8.062  -2.270  -0.031  0.00  0.00    +0.000 OA
ATOM     17  N   UNL     1       5.747  -2.151   0.015  0.00  0.00    +0.000 N 
ATOM     18  H   UNL     1       5.573  -3.133  -0.128  0.00  0.00    +0.000 HD
ENDBRANCH   1  14
BRANCH   4  19
ATOM     19  C   UNL     1       7.041   4.751  -0.897  0.00  0.00    +0.000 C 
BRANCH  19  20
ATOM     20  C   UNL     1       6.857   5.187  -2.338  0.00  0.00    +0.000 C 
BRANCH  20  21
ATOM     21  C   UNL     1       6.082   6.485  -2.480  0.00  0.00    +0.000 C 
BRANCH  21  22
ATOM     22  N   UNL     1       5.937   6.848  -3.873  0.00  0.00    +0.000 N 
ATOM     23  C   UNL     1       5.701   5.956  -4.946  0.00  0.00    +0.000 A 
ATOM     24  O   UNL     1       5.539   4.741  -4.926  0.00  0.00    +0.000 OA
ATOM     25  N   UNL     1       5.695   6.718  -6.112  0.00  0.00    +0.000 N 
ATOM     26  C   UNL     1       5.866   8.052  -5.779  0.00  0.00    +0.000 A 
ATOM     27  C   UNL     1       5.906   9.141  -6.615  0.00  0.00    +0.000 A 
ATOM     28  C   UNL     1       6.076  10.388  -6.011  0.00  0.00    +0.000 A 
ATOM     29  C   UNL     1       6.202  10.504  -4.610  0.00  0.00    +0.000 A 
ATOM     30  C   UNL     1       6.166   9.374  -3.781  0.00  0.00    +0.000 A 
ATOM     31  C   UNL     1       6.001   8.151  -4.393  0.00  0.00    +0.000 A 
ATOM     32  H   UNL     1       5.580   6.316  -7.026  0.00  0.00    +0.000 HD
ENDBRANCH  21  22
ENDBRANCH  20  21
ENDBRANCH  19  20
ENDBRANCH   4  19
TORSDOF 5
