REMARK  Name = Donepezil
REMARK  8 active torsions:
REMARK  status: ('A' for Active; 'I' for Inactive)
REMARK    1  A    between atoms: C_1  and  O_2
REMARK    2  A    between atoms: O_2  and  C_3
REMARK    3  A    between atoms: C_4  and  O_5
REMARK    4  A    between atoms: O_5  and  C_6
REMARK    5  A    between atoms: C_11  and  C_12
REMARK    6  A    between atoms: C_12  and  C_13
REMARK    7  A    between atoms: N_16  and  C_17
REMARK    8  A    between atoms: C_17  and  C_18
REMARK                            x       y       z     vdW  Elec       q    Type
REMARK                         _______ _______ _______ _____ _____    ______ ____
ROOT
ATOM      1  C   UNL     1       3.044  -0.183  -1.119  0.00  0.00    +0.000 A 
ATOM      2  C   UNL     1       2.631   0.592  -2.243  0.00  0.00    +0.000 A 
ATOM      3  C   UNL     1       3.317   0.424  -3.405  0.00  0.00    +0.000 A 
ATOM      4  C   UNL     1       4.402  -0.418  -3.334  0.00  0.00    +0.000 A 
ATOM      5  C   UNL     1       5.489  -0.229  -4.200  0.00  0.00    +0.000 C 
ATOM      6  O   UNL     1       5.470   0.806  -4.814  0.00  0.00    +0.000 OA
ATOM      7  C   UNL     1       6.469  -1.386  -4.068  0.00  0.00    +0.000 C 
ATOM      8  C   UNL     1       6.151  -1.901  -2.642  0.00  0.00    +0.000 C 
ATOM      9  C   UNL     1       4.866  -1.194  -2.303  0.00  0.00    +0.000 A 
ATOM     10  C   UNL     1       4.152  -1.083  -1.148  0.00  0.00    +0.000 A 
ENDROOT
BRANCH   1  12
ATOM     11  C   UNL     1       1.046  -0.101   0.051  0.00  0.00    +0.000 C 
ATOM     12  O   UNL     1       2.465  -0.066   0.117  0.00  0.00    +0.000 OA
ENDBRANCH   1  12
BRANCH   2  13
ATOM     13  O   UNL     1       1.654   1.541  -2.135  0.00  0.00    +0.000 OA
ATOM     14  C   UNL     1       1.275   2.259  -3.312  0.00  0.00    +0.000 C 
ENDBRANCH   2  13
BRANCH   7  15
ATOM     15  C   UNL     1       7.895  -0.951  -4.394  0.00  0.00    +0.000 C 
BRANCH  15  16
ATOM     16  C   UNL     1       8.227  -0.668  -5.903  0.00  0.00    +0.000 C 
ATOM     17  C   UNL     1       7.312   0.334  -6.614  0.00  0.00    +0.000 C 
ATOM     18  C   UNL     1       5.977  -0.300  -7.042  0.00  0.00    +0.000 C 
ATOM     19  N   UNL     1       5.994  -1.535  -7.809  0.00  0.00    +0.000 NA
ATOM     20  C   UNL     1       6.936  -2.480  -7.174  0.00  0.00    +0.000 C 
ATOM     21  C   UNL     1       8.286  -1.913  -6.781  0.00  0.00    +0.000 C 
BRANCH  19  22
ATOM     22  C   UNL     1       4.591  -2.061  -7.700  0.00  0.00    +0.000 C 
BRANCH  22  23
ATOM     23  C   UNL     1       4.407  -3.301  -8.506  0.00  0.00    +0.000 A 
ATOM     24  C   UNL     1       3.656  -3.259  -9.672  0.00  0.00    +0.000 A 
ATOM     25  C   UNL     1       3.561  -4.408 -10.441  0.00  0.00    +0.000 A 
ATOM     26  C   UNL     1       4.338  -5.530 -10.135  0.00  0.00    +0.000 A 
ATOM     27  C   UNL     1       5.110  -5.564  -8.986  0.00  0.00    +0.000 A 
ATOM     28  C   UNL     1       5.050  -4.490  -8.127  0.00  0.00    +0.000 A 
ENDBRANCH  22  23
ENDBRANCH  19  22
ENDBRANCH  15  16
ENDBRANCH   7  15
TORSDOF 6
