REMARK  Name = Dopexamine
REMARK  15 active torsions:
REMARK  status: ('A' for Active; 'I' for Inactive)
REMARK    1  A    between atoms: O_1  and  C_2
REMARK    2  A    between atoms: C_3  and  O_4
REMARK    3  A    between atoms: C_6  and  C_7
REMARK    4  A    between atoms: C_7  and  C_8
REMARK    5  A    between atoms: C_8  and  N_9
REMARK    6  A    between atoms: N_9  and  C_10
REMARK    7  A    between atoms: C_10  and  C_11
REMARK    8  A    between atoms: C_11  and  C_12
REMARK    9  A    between atoms: C_12  and  C_13
REMARK   10  A    between atoms: C_13  and  C_14
REMARK   11  A    between atoms: C_14  and  C_15
REMARK   12  A    between atoms: C_15  and  N_16
REMARK   13  A    between atoms: N_16  and  C_17
REMARK   14  A    between atoms: C_17  and  C_18
REMARK   15  A    between atoms: C_18  and  C_19
REMARK                            x       y       z     vdW  Elec       q    Type
REMARK                         _______ _______ _______ _____ _____    ______ ____
ROOT
ATOM      1  C   UNL     1      -6.796   0.459  -0.031  0.00  0.00    +0.000 C 
ENDROOT
BRANCH   1   2
ATOM      2  N   UNL     1      -5.671   1.389  -0.010  0.00  0.00    +0.000 NA
ATOM      3  H   UNL     1      -5.705   1.984  -0.837  0.00  0.00    +0.000 HD
BRANCH   2   4
ATOM      4  C   UNL     1      -4.438   0.614  -0.011  0.00  0.00    +0.000 C 
BRANCH   4   5
ATOM      5  C   UNL     1      -3.190   1.496   0.011  0.00  0.00    +0.000 C 
BRANCH   5   9
ATOM      6  C   UNL     1       0.534  -0.699  -0.004  0.00  0.00    +0.000 A 
ATOM      7  C   UNL     1       0.529   0.696   0.008  0.00  0.00    +0.000 A 
ATOM      8  C   UNL     1      -0.681   1.391   0.016  0.00  0.00    +0.000 A 
ATOM      9  C   UNL     1      -1.901   0.702   0.005  0.00  0.00    +0.000 A 
ATOM     10  C   UNL     1      -1.873  -0.702  -0.011  0.00  0.00    +0.000 A 
ATOM     11  C   UNL     1      -0.666  -1.395  -0.012  0.00  0.00    +0.000 A 
BRANCH   6  12
ATOM     12  O   UNL     1       1.656  -1.475  -0.010  0.00  0.00    +0.000 OA
ATOM     13  H   UNL     1       2.449  -0.933   0.050  0.00  0.00    +0.000 HD
ENDBRANCH   6  12
BRANCH   7  14
ATOM     14  O   UNL     1       1.652   1.470   0.013  0.00  0.00    +0.000 OA
ATOM     15  H   UNL     1       2.445   0.925  -0.055  0.00  0.00    +0.000 HD
ENDBRANCH   7  14
ENDBRANCH   5   9
ENDBRANCH   4   5
ENDBRANCH   2   4
ENDBRANCH   1   2
BRANCH   1  16
ATOM     16  C   UNL     1      -8.086   1.252  -0.026  0.00  0.00    +0.000 C 
BRANCH  16  17
ATOM     17  C   UNL     1      -9.269   0.299  -0.045  0.00  0.00    +0.000 C 
BRANCH  17  18
ATOM     18  C   UNL     1     -10.565   1.086  -0.041  0.00  0.00    +0.000 C 
BRANCH  18  19
ATOM     19  C   UNL     1     -11.746   0.133  -0.059  0.00  0.00    +0.000 C 
BRANCH  19  20
ATOM     20  C   UNL     1     -13.035   0.927  -0.053  0.00  0.00    +0.000 C 
BRANCH  20  21
ATOM     21  N   UNL     1     -14.155  -0.007  -0.077  0.00  0.00    +0.000 NA
ATOM     22  H   UNL     1     -14.130  -0.594   0.757  0.00  0.00    +0.000 HD
BRANCH  21  23
ATOM     23  C   UNL     1     -15.388   0.767  -0.095  0.00  0.00    +0.000 C 
BRANCH  23  24
ATOM     24  C   UNL     1     -16.630  -0.119  -0.137  0.00  0.00    +0.000 C 
BRANCH  24  25
ATOM     25  C   UNL     1     -17.918   0.674  -0.094  0.00  0.00    +0.000 A 
ATOM     26  C   UNL     1     -17.944   2.080  -0.138  0.00  0.00    +0.000 A 
ATOM     27  C   UNL     1     -19.137   2.777   0.033  0.00  0.00    +0.000 A 
ATOM     28  C   UNL     1     -20.327   2.081   0.177  0.00  0.00    +0.000 A 
ATOM     29  C   UNL     1     -20.328   0.686   0.167  0.00  0.00    +0.000 A 
ATOM     30  C   UNL     1     -19.127  -0.014   0.038  0.00  0.00    +0.000 A 
ENDBRANCH  24  25
ENDBRANCH  23  24
ENDBRANCH  21  23
ENDBRANCH  20  21
ENDBRANCH  19  20
ENDBRANCH  18  19
ENDBRANCH  17  18
ENDBRANCH  16  17
ENDBRANCH   1  16
TORSDOF 15
