REMARK  Name = Doravirine
REMARK  7 active torsions:
REMARK  status: ('A' for Active; 'I' for Inactive)
REMARK    1  A    between atoms: C_1  and  N_2
REMARK    2  A    between atoms: C_7  and  C_8
REMARK    3  A    between atoms: C_8  and  N_9
REMARK    4  A    between atoms: C_12  and  C_26
REMARK    5  A    between atoms: C_13  and  O_14
REMARK    6  A    between atoms: O_14  and  C_15
REMARK    7  A    between atoms: C_17  and  C_22
REMARK                            x       y       z     vdW  Elec       q    Type
REMARK                         _______ _______ _______ _____ _____    ______ ____
ROOT
ATOM      1  N   UNL     1       1.186  -2.637  -0.051  0.00  0.00    +0.000 N 
ATOM      2  C   UNL     1       0.464  -3.000   1.063  0.00  0.00    +0.000 A 
ATOM      3  C   UNL     1      -0.835  -2.683   1.151  0.00  0.00    +0.000 A 
ATOM      4  C   UNL     1      -1.569  -2.225  -0.027  0.00  0.00    +0.000 A 
ATOM      5  C   UNL     1      -0.917  -1.984  -1.185  0.00  0.00    +0.000 A 
ATOM      6  C   UNL     1       0.593  -2.138  -1.195  0.00  0.00    +0.000 A 
ATOM      7  O   UNL     1       1.308  -1.677  -2.083  0.00  0.00    +0.000 OA
ENDROOT
BRANCH   4   8
ATOM      8  C   UNL     1      -3.070  -2.177   0.082  0.00  0.00    +0.000 C 
ATOM      9  F   UNL     1      -3.555  -3.404   0.407  0.00  0.00    +0.000 F 
ATOM     10  F   UNL     1      -3.497  -1.322   1.047  0.00  0.00    +0.000 F 
ATOM     11  F   UNL     1      -3.703  -1.811  -1.060  0.00  0.00    +0.000 F 
ENDBRANCH   4   8
BRANCH   1  12
ATOM     12  C   UNL     1       2.636  -2.442  -0.000  0.00  0.00    +0.000 C 
BRANCH  12  19
ATOM     13  C   UNL     1       0.934   0.355   0.104  0.00  0.00    +0.000 C 
ATOM     14  N   UNL     1       2.354   0.143   0.045  0.00  0.00    +0.000 N 
ATOM     15  C   UNL     1       3.198   1.216  -0.024  0.00  0.00    +0.000 A 
ATOM     16  O   UNL     1       2.896   2.397  -0.036  0.00  0.00    +0.000 OA
ATOM     17  N   UNL     1       4.468   0.681  -0.055  0.00  0.00    +0.000 N 
ATOM     18  N   UNL     1       4.415  -0.691  -0.040  0.00  0.00    +0.000 NA
ATOM     19  C   UNL     1       3.133  -0.966   0.004  0.00  0.00    +0.000 A 
ATOM     20  H   UNL     1       5.322   1.221  -0.085  0.00  0.00    +0.000 HD
ENDBRANCH  12  19
ENDBRANCH   1  12
BRANCH   5  21
ATOM     21  O   UNL     1      -1.620  -1.491  -2.285  0.00  0.00    +0.000 OA
BRANCH  21  22
ATOM     22  C   UNL     1      -0.969  -1.160  -3.443  0.00  0.00    +0.000 A 
ATOM     23  C   UNL     1      -1.181   0.121  -3.949  0.00  0.00    +0.000 A 
ATOM     24  C   UNL     1      -0.520   0.515  -5.115  0.00  0.00    +0.000 A 
ATOM     25  C   UNL     1       0.370  -0.364  -5.746  0.00  0.00    +0.000 A 
ATOM     26  C   UNL     1       0.571  -1.639  -5.228  0.00  0.00    +0.000 A 
ATOM     27 CL   UNL     1       1.716  -2.698  -5.953  0.00  0.00    +0.000 Cl
ATOM     28  C   UNL     1      -0.140  -2.062  -4.113  0.00  0.00    +0.000 A 
BRANCH  24  29
ATOM     29  C   UNL     1      -0.764   1.806  -5.674  0.00  0.00    +0.000 C 
ATOM     30  N   UNL     1      -0.982   2.852  -6.142  0.00  0.00    +0.000 NA
ENDBRANCH  24  29
ENDBRANCH  21  22
ENDBRANCH   5  21
TORSDOF 6
