REMARK  Name = Doripenem
REMARK  12 active torsions:
REMARK  status: ('A' for Active; 'I' for Inactive)
REMARK    1  A    between atoms: C_3  and  C_4
REMARK    2  A    between atoms: C_5  and  S_6
REMARK    3  A    between atoms: S_6  and  C_7
REMARK    4  A    between atoms: C_10  and  C_11
REMARK    5  A    between atoms: C_11  and  N_12
REMARK    6  A    between atoms: N_12  and  S_13
REMARK    7  A    between atoms: S_13  and  N_14
REMARK    8  A    between atoms: C_18  and  C_27
REMARK    9  A    between atoms: C_22  and  C_24
REMARK   10  A    between atoms: C_24  and  C_25
REMARK   11  A    between atoms: C_24  and  O_26
REMARK   12  A    between atoms: C_27  and  O_28
REMARK                            x       y       z     vdW  Elec       q    Type
REMARK                         _______ _______ _______ _____ _____    ______ ____
ROOT
ATOM      1  C   UNL     1       2.130  -0.087   0.054  0.00  0.00    +0.000 C 
ATOM      2  C   UNL     1       2.483   0.695   1.325  0.00  0.00    +0.000 C 
ATOM      3  C   UNL     1       3.402  -0.167   2.197  0.00  0.00    +0.000 C 
ATOM      4  C   UNL     1       3.096   1.953   0.741  0.00  0.00    +0.000 C 
ATOM      5  C   UNL     1       3.497   1.710  -0.535  0.00  0.00    +0.000 C 
ATOM      6  N   UNL     1       2.985   0.505  -1.014  0.00  0.00    +0.000 N 
ATOM      7  C   UNL     1       3.698  -0.651  -1.204  0.00  0.00    +0.000 C 
ATOM      8  O   UNL     1       4.706  -0.864  -1.825  0.00  0.00    +0.000 OA
ATOM      9  C   UNL     1       2.741  -1.468  -0.300  0.00  0.00    +0.000 C 
ENDROOT
BRANCH   9  10
ATOM     10  C   UNL     1       1.789  -2.448  -0.958  0.00  0.00    +0.000 C 
ATOM     11  C   UNL     1       2.571  -3.557  -1.642  0.00  0.00    +0.000 C 
BRANCH  10  12
ATOM     12  O   UNL     1       0.942  -2.988   0.062  0.00  0.00    +0.000 OA
ATOM     13  H   UNL     1       1.461  -3.608   0.608  0.00  0.00    +0.000 HD
ENDBRANCH  10  12
ENDBRANCH   9  10
BRANCH   5  14
ATOM     14  C   UNL     1       4.279   2.670  -1.397  0.00  0.00    +0.000 C 
ATOM     15  O   UNL     1       4.633   3.784  -1.041  0.00  0.00    +0.000 OA
BRANCH  14  16
ATOM     16  O   UNL     1       4.595   2.230  -2.634  0.00  0.00    +0.000 OA
ATOM     17  H   UNL     1       4.395   1.298  -2.832  0.00  0.00    +0.000 HD
ENDBRANCH  14  16
ENDBRANCH   5  14
BRANCH   4  18
ATOM     18  S   UNL     1       3.169   3.511   1.510  0.00  0.00    +0.000 S 
BRANCH  18  19
ATOM     19  C   UNL     1       2.346   3.510   3.125  0.00  0.00    +0.000 C 
ATOM     20  C   UNL     1       3.061   2.656   4.139  0.00  0.00    +0.000 C 
ATOM     21  N   UNL     1       2.069   2.233   5.123  0.00  0.00    +0.000 NA
ATOM     22  C   UNL     1       0.740   2.266   4.468  0.00  0.00    +0.000 C 
ATOM     23  C   UNL     1       0.905   3.027   3.143  0.00  0.00    +0.000 C 
ATOM     24  H   UNL     1       2.080   2.901   5.895  0.00  0.00    +0.000 HD
BRANCH  22  25
ATOM     25  C   UNL     1       0.188   0.830   4.307  0.00  0.00    +0.000 C 
BRANCH  25  26
ATOM     26  N   UNL     1      -1.120   0.798   3.627  0.00  0.00    +0.000 NA
ATOM     27  H   UNL     1      -1.236   1.340   2.775  0.00  0.00    +0.000 HD
BRANCH  26  28
ATOM     28  S   UNL     1      -1.876  -0.684   3.502  0.00  0.00    +0.000 S 
ATOM     29  O   UNL     1      -1.815  -1.357   4.772  0.00  0.00    +0.000 OA
ATOM     30  O   UNL     1      -3.080  -0.493   2.741  0.00  0.00    +0.000 OA
BRANCH  28  31
ATOM     31  N   UNL     1      -0.781  -1.399   2.503  0.00  0.00    +0.000 NA
ATOM     32  H   UNL     1       0.064  -1.760   2.926  0.00  0.00    +0.000 HD
ATOM     33  H   UNL     1      -0.846  -1.218   1.508  0.00  0.00    +0.000 HD
ENDBRANCH  28  31
ENDBRANCH  26  28
ENDBRANCH  25  26
ENDBRANCH  22  25
ENDBRANCH  18  19
ENDBRANCH   4  18
TORSDOF 10
