REMARK  Name = Dorzolamide
REMARK  6 active torsions:
REMARK  status: ('A' for Active; 'I' for Inactive)
REMARK    1  A    between atoms: C_1  and  C_2
REMARK    2  A    between atoms: C_2  and  N_3
REMARK    3  A    between atoms: N_3  and  C_4
REMARK    4  A    between atoms: C_6  and  C_7
REMARK    5  A    between atoms: C_14  and  S_16
REMARK    6  A    between atoms: S_16  and  N_17
REMARK                            x       y       z     vdW  Elec       q    Type
REMARK                         _______ _______ _______ _____ _____    ______ ____
ROOT
ATOM      1  C   UNL     1       4.524   0.322   1.141  0.00  0.00    +0.000 C 
ATOM      2  C   UNL     1       4.840   1.003   2.482  0.00  0.00    +0.000 C 
ATOM      3  C   UNL     1       5.668   2.291   2.605  0.00  0.00    +0.000 C 
ATOM      4  C   UNL     1       4.730   3.320   3.204  0.00  0.00    +0.000 C 
ATOM      5  S   UNL     1       6.423   3.054   1.189  0.00  0.00    +0.000 S 
ATOM      6  O   UNL     1       5.878   4.380   0.974  0.00  0.00    +0.000 OA
ATOM      7  O   UNL     1       7.844   2.779   1.172  0.00  0.00    +0.000 OA
ATOM      8  C   UNL     1       5.742   2.152  -0.110  0.00  0.00    +0.000 A 
ATOM      9  C   UNL     1       4.880   1.088  -0.104  0.00  0.00    +0.000 A 
ATOM     10  C   UNL     1       4.537   0.755  -1.464  0.00  0.00    +0.000 A 
ATOM     11  C   UNL     1       5.287   1.471  -2.373  0.00  0.00    +0.000 A 
ATOM     12  S   UNL     1       6.223   2.672  -1.634  0.00  0.00    +0.000 S 
ENDROOT
BRANCH  11  13
ATOM     13  S   UNL     1       5.430   1.465  -4.123  0.00  0.00    +0.000 S 
ATOM     14  O   UNL     1       6.853   1.463  -4.401  0.00  0.00    +0.000 OA
ATOM     15  O   UNL     1       4.526   0.440  -4.558  0.00  0.00    +0.000 OA
BRANCH  13  16
ATOM     16  N   UNL     1       4.803   2.970  -4.552  0.00  0.00    +0.000 NA
ATOM     17  H   UNL     1       5.394   3.720  -4.183  0.00  0.00    +0.000 HD
ATOM     18  H   UNL     1       3.835   3.052  -4.240  0.00  0.00    +0.000 HD
ENDBRANCH  13  16
ENDBRANCH  11  13
BRANCH   1  19
ATOM     19  N   UNL     1       5.195  -0.991   1.185  0.00  0.00    +0.000 NA
ATOM     20  H   UNL     1       5.819  -1.064   1.987  0.00  0.00    +0.000 HD
BRANCH  19  22
ATOM     21  C   UNL     1       6.655  -2.652   0.122  0.00  0.00    +0.000 C 
ATOM     22  C   UNL     1       5.969  -1.327   0.003  0.00  0.00    +0.000 C 
ENDBRANCH  19  22
ENDBRANCH   1  19
TORSDOF 4
