REMARK  Name = Dosulepin
REMARK  5 active torsions:
REMARK  status: ('A' for Active; 'I' for Inactive)
REMARK    1  A    between atoms: C_1  and  N_2
REMARK    2  A    between atoms: N_2  and  C_3
REMARK    3  A    between atoms: N_2  and  C_4
REMARK    4  A    between atoms: C_4  and  C_5
REMARK    5  A    between atoms: C_5  and  C_6
REMARK                            x       y       z     vdW  Elec       q    Type
REMARK                         _______ _______ _______ _____ _____    ______ ____
ROOT
ATOM      1  C   UNL     1       5.004  -2.428   1.364  0.00  0.00    +0.000 C 
ATOM      2  C   UNL     1       6.343  -2.627   1.502  0.00  0.00    +0.000 C 
ATOM      3  C   UNL     1       7.254  -1.646   0.864  0.00  0.00    +0.000 A 
ATOM      4  C   UNL     1       7.391  -0.340   1.356  0.00  0.00    +0.000 A 
ATOM      5  C   UNL     1       8.252   0.561   0.731  0.00  0.00    +0.000 A 
ATOM      6  C   UNL     1       9.019   0.150  -0.356  0.00  0.00    +0.000 A 
ATOM      7  C   UNL     1       8.901  -1.149  -0.841  0.00  0.00    +0.000 A 
ATOM      8  C   UNL     1       7.993  -2.042  -0.261  0.00  0.00    +0.000 A 
ATOM      9  C   UNL     1       7.863  -3.436  -0.797  0.00  0.00    +0.000 C 
ATOM     10  S   UNL     1       8.844  -4.577   0.187  0.00  0.00    +0.000 S 
ATOM     11  C   UNL     1       7.913  -4.667   1.722  0.00  0.00    +0.000 A 
ATOM     12  C   UNL     1       8.368  -5.737   2.514  0.00  0.00    +0.000 A 
ATOM     13  C   UNL     1       7.820  -6.004   3.761  0.00  0.00    +0.000 A 
ATOM     14  C   UNL     1       6.801  -5.197   4.245  0.00  0.00    +0.000 A 
ATOM     15  C   UNL     1       6.328  -4.131   3.477  0.00  0.00    +0.000 A 
ATOM     16  C   UNL     1       6.860  -3.844   2.201  0.00  0.00    +0.000 A 
ENDROOT
BRANCH   1  17
ATOM     17  C   UNL     1       4.401  -1.233   0.663  0.00  0.00    +0.000 C 
BRANCH  17  18
ATOM     18  C   UNL     1       2.868  -1.163   0.668  0.00  0.00    +0.000 C 
BRANCH  18  20
ATOM     19  C   UNL     1       0.901   0.039  -0.031  0.00  0.00    +0.000 C 
ATOM     20  N   UNL     1       2.365   0.056  -0.004  0.00  0.00    +0.000 NA
ATOM     21  C   UNL     1       2.824   1.283   0.655  0.00  0.00    +0.000 C 
ENDBRANCH  18  20
ENDBRANCH  17  18
ENDBRANCH   1  17
TORSDOF 3
