REMARK  Name = Doxazosin
REMARK  5 active torsions:
REMARK  status: ('A' for Active; 'I' for Inactive)
REMARK    1  A    between atoms: C_1  and  O_2
REMARK    2  A    between atoms: O_2  and  C_3
REMARK    3  A    between atoms: C_4  and  O_5
REMARK    4  A    between atoms: O_5  and  C_6
REMARK    5  A    between atoms: C_22  and  C_24
REMARK                            x       y       z     vdW  Elec       q    Type
REMARK                         _______ _______ _______ _____ _____    ______ ____
ROOT
ATOM      1  C   UNL     1       3.069  -0.001   1.220  0.00  0.00    +0.000 A 
ATOM      2  C   UNL     1       2.688  -0.782   2.316  0.00  0.00    +0.000 A 
ATOM      3  C   UNL     1       3.424  -0.657   3.492  0.00  0.00    +0.000 A 
ATOM      4  C   UNL     1       4.529   0.236   3.596  0.00  0.00    +0.000 A 
ATOM      5  C   UNL     1       5.308   0.409   4.742  0.00  0.00    +0.000 A 
ATOM      6  N   UNL     1       5.125  -0.389   5.867  0.00  0.00    +0.000 N 
ATOM      7  N   UNL     1       6.331   1.283   4.794  0.00  0.00    +0.000 NA
ATOM      8  C   UNL     1       6.563   2.073   3.722  0.00  0.00    +0.000 A 
ATOM      9  N   UNL     1       5.878   1.953   2.580  0.00  0.00    +0.000 NA
ATOM     10  C   UNL     1       4.894   1.034   2.511  0.00  0.00    +0.000 A 
ATOM     11  C   UNL     1       4.177   0.864   1.328  0.00  0.00    +0.000 A 
ATOM     12  N   UNL     1       7.606   2.957   3.783  0.00  0.00    +0.000 N 
ATOM     13  C   UNL     1       7.632   4.402   3.496  0.00  0.00    +0.000 C 
ATOM     14  C   UNL     1       8.270   5.233   4.686  0.00  0.00    +0.000 C 
ATOM     15  N   UNL     1       9.546   4.644   5.079  0.00  0.00    +0.000 N 
ATOM     16  C   UNL     1       9.339   3.265   5.339  0.00  0.00    +0.000 C 
ATOM     17  C   UNL     1       8.872   2.418   4.177  0.00  0.00    +0.000 C 
ATOM     18  C   UNL     1      10.782   5.296   5.214  0.00  0.00    +0.000 C 
ATOM     19  O   UNL     1      10.871   6.489   4.945  0.00  0.00    +0.000 OA
ATOM     20  H   UNL     1       4.277  -0.913   6.011  0.00  0.00    +0.000 HD
ATOM     21  H   UNL     1       5.660  -0.120   6.681  0.00  0.00    +0.000 HD
ENDROOT
BRANCH  18  22
ATOM     22  C   UNL     1      12.119   4.521   5.754  0.00  0.00    +0.000 C 
ATOM     23  C   UNL     1      12.861   3.516   4.855  0.00  0.00    +0.000 C 
ATOM     24  O   UNL     1      12.284   2.203   4.798  0.00  0.00    +0.000 OA
ATOM     25  C   UNL     1      11.786   1.781   6.031  0.00  0.00    +0.000 A 
ATOM     26  C   UNL     1      10.910   0.679   5.934  0.00  0.00    +0.000 A 
ATOM     27  C   UNL     1       9.925   0.476   6.914  0.00  0.00    +0.000 A 
ATOM     28  C   UNL     1       9.856   1.318   8.028  0.00  0.00    +0.000 A 
ATOM     29  C   UNL     1      10.725   2.409   8.141  0.00  0.00    +0.000 A 
ATOM     30  C   UNL     1      11.657   2.672   7.127  0.00  0.00    +0.000 A 
ATOM     31  O   UNL     1      12.075   3.989   7.087  0.00  0.00    +0.000 OA
ENDBRANCH  18  22
BRANCH   1  33
ATOM     32  C   UNL     1       1.069  -0.035  -0.060  0.00  0.00    +0.000 C 
ATOM     33  O   UNL     1       2.495  -0.056  -0.028  0.00  0.00    +0.000 OA
ENDBRANCH   1  33
BRANCH   2  34
ATOM     34  O   UNL     1       1.651  -1.659   2.165  0.00  0.00    +0.000 OA
ATOM     35  C   UNL     1       1.210  -2.412   3.287  0.00  0.00    +0.000 C 
ENDBRANCH   2  34
TORSDOF 3
