REMARK  Name = Doxapram
REMARK  7 active torsions:
REMARK  status: ('A' for Active; 'I' for Inactive)
REMARK    1  A    between atoms: C_1  and  C_2
REMARK    2  A    between atoms: C_2  and  N_3
REMARK    3  A    between atoms: C_5  and  C_6
REMARK    4  A    between atoms: C_6  and  C_7
REMARK    5  A    between atoms: C_7  and  N_8
REMARK    6  A    between atoms: C_14  and  C_17
REMARK    7  A    between atoms: C_14  and  C_23
REMARK                            x       y       z     vdW  Elec       q    Type
REMARK                         _______ _______ _______ _____ _____    ______ ____
ROOT
ATOM      1  N   UNL     1       3.005  -1.254  -0.569  0.00  0.00    +0.000 N 
ATOM      2  C   UNL     1       3.816  -1.327  -1.755  0.00  0.00    +0.000 C 
ATOM      3  C   UNL     1       3.548  -2.750  -2.253  0.00  0.00    +0.000 C 
ATOM      4  C   UNL     1       3.288  -3.581  -0.933  0.00  0.00    +0.000 C 
ATOM      5  C   UNL     1       2.687  -2.495  -0.047  0.00  0.00    +0.000 C 
ATOM      6  O   UNL     1       2.010  -2.687   0.968  0.00  0.00    +0.000 OA
ENDROOT
BRANCH   4   7
ATOM      7  C   UNL     1       4.637  -4.036  -0.328  0.00  0.00    +0.000 A 
ATOM      8  C   UNL     1       5.852  -4.038  -1.039  0.00  0.00    +0.000 A 
ATOM      9  C   UNL     1       6.934  -4.783  -0.589  0.00  0.00    +0.000 A 
ATOM     10  C   UNL     1       6.847  -5.465   0.618  0.00  0.00    +0.000 A 
ATOM     11  C   UNL     1       5.682  -5.408   1.376  0.00  0.00    +0.000 A 
ATOM     12  C   UNL     1       4.599  -4.666   0.928  0.00  0.00    +0.000 A 
ENDBRANCH   4   7
BRANCH   4  13
ATOM     13  C   UNL     1       2.275  -4.775  -1.045  0.00  0.00    +0.000 A 
ATOM     14  C   UNL     1       2.702  -6.114  -0.929  0.00  0.00    +0.000 A 
ATOM     15  C   UNL     1       1.913  -7.181  -1.349  0.00  0.00    +0.000 A 
ATOM     16  C   UNL     1       0.668  -6.942  -1.909  0.00  0.00    +0.000 A 
ATOM     17  C   UNL     1       0.183  -5.641  -1.969  0.00  0.00    +0.000 A 
ATOM     18  C   UNL     1       0.936  -4.576  -1.454  0.00  0.00    +0.000 A 
ENDBRANCH   4  13
BRANCH   1  20
ATOM     19  C   UNL     1       1.028   0.024   0.052  0.00  0.00    +0.000 C 
ATOM     20  C   UNL     1       2.551  -0.029   0.044  0.00  0.00    +0.000 C 
ENDBRANCH   1  20
BRANCH   3  21
ATOM     21  C   UNL     1       2.419  -2.717  -3.259  0.00  0.00    +0.000 C 
BRANCH  21  22
ATOM     22  C   UNL     1       2.261  -4.079  -3.943  0.00  0.00    +0.000 C 
BRANCH  22  23
ATOM     23  N   UNL     1       1.021  -4.159  -4.726  0.00  0.00    +0.000 NA
ATOM     24  C   UNL     1       1.055  -5.392  -5.545  0.00  0.00    +0.000 C 
ATOM     25  C   UNL     1       2.240  -5.372  -6.527  0.00  0.00    +0.000 C 
ATOM     26  O   UNL     1       2.238  -4.177  -7.335  0.00  0.00    +0.000 OA
ATOM     27  C   UNL     1       2.169  -2.983  -6.539  0.00  0.00    +0.000 C 
ATOM     28  C   UNL     1       0.929  -3.006  -5.633  0.00  0.00    +0.000 C 
ENDBRANCH  22  23
ENDBRANCH  21  22
ENDBRANCH   3  21
TORSDOF 6
