REMARK  Name = Doxercalciferol
REMARK  12 active torsions:
REMARK  status: ('A' for Active; 'I' for Inactive)
REMARK    1  A    between atoms: C_2  and  C_24
REMARK    2  A    between atoms: C_11  and  C_12
REMARK    3  A    between atoms: C_13  and  C_14
REMARK    4  A    between atoms: C_17  and  O_18
REMARK    5  A    between atoms: C_20  and  O_21
REMARK    6  A    between atoms: C_24  and  C_25
REMARK    7  A    between atoms: C_24  and  C_26
REMARK    8  A    between atoms: C_27  and  C_28
REMARK    9  A    between atoms: C_28  and  C_29
REMARK   10  A    between atoms: C_28  and  C_30
REMARK   11  A    between atoms: C_30  and  C_31
REMARK   12  A    between atoms: C_30  and  C_32
REMARK                            x       y       z     vdW  Elec       q    Type
REMARK                         _______ _______ _______ _____ _____    ______ ____
ROOT
ATOM      1  C   UNL     1       4.776  -3.538   0.963  0.00  0.00    +0.000 C 
ATOM      2  C   UNL     1       3.564  -3.976   0.093  0.00  0.00    +0.000 C 
ATOM      3  C   UNL     1       2.597  -2.776   0.009  0.00  0.00    +0.000 C 
ATOM      4  C   UNL     1       3.434  -1.605   0.516  0.00  0.00    +0.000 C 
ATOM      5  C   UNL     1       2.823  -0.330   1.028  0.00  0.00    +0.000 C 
ATOM      6  C   UNL     1       3.897   0.617   1.531  0.00  0.00    +0.000 C 
ATOM      7  C   UNL     1       4.885   0.060   2.523  0.00  0.00    +0.000 C 
ATOM      8  C   UNL     1       5.413  -1.261   2.024  0.00  0.00    +0.000 C 
ATOM      9  C   UNL     1       4.249  -2.243   1.661  0.00  0.00    +0.000 C 
ATOM     10  C   UNL     1       3.213  -2.520   2.811  0.00  0.00    +0.000 C 
ATOM     11  C   UNL     1       1.510  -0.032   1.038  0.00  0.00    +0.000 C 
ENDROOT
BRANCH  11  12
ATOM     12  C   UNL     1       0.986   1.271   1.410  0.00  0.00    +0.000 C 
ATOM     13  C   UNL     1       1.436   2.472   0.973  0.00  0.00    +0.000 C 
ATOM     14  C   UNL     1       0.902   3.750   1.579  0.00  0.00    +0.000 C 
ATOM     15  C   UNL     1       2.012   4.701   2.060  0.00  0.00    +0.000 C 
ATOM     16  C   UNL     1       3.095   4.926   1.005  0.00  0.00    +0.000 C 
ATOM     17  C   UNL     1       3.655   3.611   0.489  0.00  0.00    +0.000 C 
ATOM     18  C   UNL     1       2.540   2.678   0.007  0.00  0.00    +0.000 C 
ATOM     19  C   UNL     1       2.611   1.995  -1.152  0.00  0.00    +0.000 C 
BRANCH  15  20
ATOM     20  O   UNL     1       2.591   4.241   3.285  0.00  0.00    +0.000 OA
ATOM     21  H   UNL     1       2.938   3.341   3.156  0.00  0.00    +0.000 HD
ENDBRANCH  15  20
BRANCH  17  22
ATOM     22  O   UNL     1       4.620   3.866  -0.529  0.00  0.00    +0.000 OA
ATOM     23  H   UNL     1       4.133   4.183  -1.306  0.00  0.00    +0.000 HD
ENDBRANCH  17  22
ENDBRANCH  11  12
BRANCH   1  24
ATOM     24  C   UNL     1       5.361  -4.686   1.856  0.00  0.00    +0.000 C 
ATOM     25  C   UNL     1       6.813  -5.012   1.532  0.00  0.00    +0.000 C 
BRANCH  24  26
ATOM     26  C   UNL     1       5.451  -4.285   3.287  0.00  0.00    +0.000 C 
ATOM     27  C   UNL     1       5.400  -4.957   4.417  0.00  0.00    +0.000 C 
BRANCH  27  28
ATOM     28  C   UNL     1       5.332  -4.229   5.760  0.00  0.00    +0.000 C 
ATOM     29  C   UNL     1       5.174  -2.682   5.683  0.00  0.00    +0.000 C 
BRANCH  28  30
ATOM     30  C   UNL     1       6.579  -4.552   6.603  0.00  0.00    +0.000 C 
ATOM     31  C   UNL     1       6.482  -3.885   7.977  0.00  0.00    +0.000 C 
ATOM     32  C   UNL     1       6.755  -6.060   6.792  0.00  0.00    +0.000 C 
ENDBRANCH  28  30
ENDBRANCH  27  28
ENDBRANCH  24  26
ENDBRANCH   1  24
TORSDOF 7
