REMARK  Name = Doxepin
REMARK  5 active torsions:
REMARK  status: ('A' for Active; 'I' for Inactive)
REMARK    1  A    between atoms: C_2  and  C_3
REMARK    2  A    between atoms: C_3  and  C_4
REMARK    3  A    between atoms: C_4  and  N_5
REMARK    4  A    between atoms: N_5  and  C_6
REMARK    5  A    between atoms: N_5  and  C_7
REMARK                            x       y       z     vdW  Elec       q    Type
REMARK                         _______ _______ _______ _____ _____    ______ ____
ROOT
ATOM      1  C   UNL     1       2.064   0.036   0.048  0.00  0.00    +0.000 C 
ATOM      2  C   UNL     1       2.739   0.868  -0.773  0.00  0.00    +0.000 C 
ATOM      3  C   UNL     1       1.945   1.714  -1.685  0.00  0.00    +0.000 A 
ATOM      4  C   UNL     1       1.127   2.737  -1.196  0.00  0.00    +0.000 A 
ATOM      5  C   UNL     1       0.453   3.571  -2.085  0.00  0.00    +0.000 A 
ATOM      6  C   UNL     1       0.592   3.382  -3.460  0.00  0.00    +0.000 A 
ATOM      7  C   UNL     1       1.422   2.372  -3.952  0.00  0.00    +0.000 A 
ATOM      8  C   UNL     1       2.111   1.536  -3.066  0.00  0.00    +0.000 A 
ATOM      9  C   UNL     1       3.069   0.475  -3.544  0.00  0.00    +0.000 C 
ATOM     10  O   UNL     1       4.435   0.849  -3.346  0.00  0.00    +0.000 OA
ATOM     11  C   UNL     1       4.941   0.868  -2.069  0.00  0.00    +0.000 A 
ATOM     12  C   UNL     1       6.345   0.938  -2.036  0.00  0.00    +0.000 A 
ATOM     13  C   UNL     1       7.044   0.986  -0.828  0.00  0.00    +0.000 A 
ATOM     14  C   UNL     1       6.347   1.024   0.366  0.00  0.00    +0.000 A 
ATOM     15  C   UNL     1       4.958   1.033   0.339  0.00  0.00    +0.000 A 
ATOM     16  C   UNL     1       4.228   0.884  -0.858  0.00  0.00    +0.000 A 
ENDROOT
BRANCH   1  17
ATOM     17  C   UNL     1       2.707  -0.916   1.024  0.00  0.00    +0.000 C 
BRANCH  17  18
ATOM     18  C   UNL     1       1.765  -1.675   1.957  0.00  0.00    +0.000 C 
BRANCH  18  19
ATOM     19  N   UNL     1       2.515  -2.487   2.942  0.00  0.00    +0.000 NA
ATOM     20  C   UNL     1       3.377  -1.676   3.812  0.00  0.00    +0.000 C 
ATOM     21  C   UNL     1       1.571  -3.240   3.766  0.00  0.00    +0.000 C 
ENDBRANCH  18  19
ENDBRANCH  17  18
ENDBRANCH   1  17
TORSDOF 3
