REMARK  Name = Doxorubicin
REMARK  13 active torsions:
REMARK  status: ('A' for Active; 'I' for Inactive)
REMARK    1  A    between atoms: C_1  and  O_2
REMARK    2  A    between atoms: O_2  and  C_3
REMARK    3  A    between atoms: C_12  and  O_13
REMARK    4  A    between atoms: C_17  and  O_18
REMARK    5  A    between atoms: C_17  and  C_31
REMARK    6  A    between atoms: C_20  and  O_21
REMARK    7  A    between atoms: O_21  and  C_22
REMARK    8  A    between atoms: C_24  and  N_25
REMARK    9  A    between atoms: C_26  and  O_27
REMARK   10  A    between atoms: C_28  and  C_29
REMARK   11  A    between atoms: C_31  and  C_33
REMARK   12  A    between atoms: C_33  and  O_34
REMARK   13  A    between atoms: C_35  and  O_36
REMARK                            x       y       z     vdW  Elec       q    Type
REMARK                         _______ _______ _______ _____ _____    ______ ____
ROOT
ATOM      1  C   UNL     1      -9.788  -3.788  -2.654  0.00  0.00    +0.000 A 
ATOM      2  C   UNL     1     -10.634  -2.759  -3.093  0.00  0.00    +0.000 A 
ATOM      3  C   UNL     1     -10.186  -1.436  -3.162  0.00  0.00    +0.000 A 
ATOM      4  C   UNL     1      -8.882  -1.133  -2.800  0.00  0.00    +0.000 A 
ATOM      5  C   UNL     1      -8.017  -2.162  -2.413  0.00  0.00    +0.000 A 
ATOM      6  C   UNL     1      -8.452  -3.489  -2.379  0.00  0.00    +0.000 A 
ATOM      7  C   UNL     1      -7.451  -4.545  -2.167  0.00  0.00    +0.000 C 
ATOM      8  O   UNL     1      -7.636  -5.711  -2.477  0.00  0.00    +0.000 OA
ATOM      9  C   UNL     1      -6.142  -4.203  -1.621  0.00  0.00    +0.000 A 
ATOM     10  C   UNL     1      -5.317  -5.232  -1.167  0.00  0.00    +0.000 A 
ATOM     11  C   UNL     1      -4.007  -4.953  -0.793  0.00  0.00    +0.000 A 
ATOM     12  C   UNL     1      -3.525  -3.624  -0.868  0.00  0.00    +0.000 A 
ATOM     13  C   UNL     1      -2.102  -3.295  -0.482  0.00  0.00    +0.000 C 
ATOM     14  C   UNL     1      -1.201  -4.520  -0.455  0.00  0.00    +0.000 C 
ATOM     15  C   UNL     1      -1.905  -5.582   0.396  0.00  0.00    +0.000 C 
ATOM     16  C   UNL     1      -3.133  -6.101  -0.347  0.00  0.00    +0.000 C 
ATOM     17  C   UNL     1      -4.393  -2.594  -1.248  0.00  0.00    +0.000 A 
ATOM     18  C   UNL     1      -5.705  -2.880  -1.629  0.00  0.00    +0.000 A 
ATOM     19  C   UNL     1      -6.632  -1.806  -2.059  0.00  0.00    +0.000 C 
ATOM     20  O   UNL     1      -6.307  -0.633  -2.108  0.00  0.00    +0.000 OA
ENDROOT
BRANCH   1  22
ATOM     21  C   UNL     1     -10.215  -5.747  -1.385  0.00  0.00    +0.000 C 
ATOM     22  O   UNL     1     -10.334  -5.044  -2.628  0.00  0.00    +0.000 OA
ENDBRANCH   1  22
BRANCH  10  23
ATOM     23  O   UNL     1      -5.745  -6.533  -1.050  0.00  0.00    +0.000 OA
ATOM     24  H   UNL     1      -6.596  -6.635  -1.536  0.00  0.00    +0.000 HD
ENDBRANCH  10  23
BRANCH  14  25
ATOM     25  O   UNL     1      -0.964  -4.927  -1.807  0.00  0.00    +0.000 OA
ATOM     26  H   UNL     1      -1.772  -5.324  -2.194  0.00  0.00    +0.000 HD
ENDBRANCH  14  25
BRANCH  14  27
ATOM     27  C   UNL     1       0.177  -4.247   0.170  0.00  0.00    +0.000 C 
ATOM     28  O   UNL     1       1.195  -4.847  -0.191  0.00  0.00    +0.000 OA
BRANCH  27  29
ATOM     29  C   UNL     1       0.224  -3.301   1.365  0.00  0.00    +0.000 C 
BRANCH  29  30
ATOM     30  O   UNL     1       1.496  -3.226   1.975  0.00  0.00    +0.000 OA
ATOM     31  H   UNL     1       1.836  -4.140   2.025  0.00  0.00    +0.000 HD
ENDBRANCH  29  30
ENDBRANCH  27  29
ENDBRANCH  14  27
BRANCH  17  32
ATOM     32  O   UNL     1      -3.974  -1.295  -1.253  0.00  0.00    +0.000 OA
ATOM     33  H   UNL     1      -3.041  -1.179  -1.036  0.00  0.00    +0.000 HD
ENDBRANCH  17  32
BRANCH  16  34
ATOM     34  O   UNL     1      -2.782  -6.865  -1.513  0.00  0.00    +0.000 OA
BRANCH  34  35
ATOM     35  C   UNL     1      -1.947  -7.981  -1.196  0.00  0.00    +0.000 C 
ATOM     36  C   UNL     1      -2.628  -8.927  -0.200  0.00  0.00    +0.000 C 
ATOM     37  C   UNL     1      -1.779 -10.141   0.147  0.00  0.00    +0.000 C 
ATOM     38  C   UNL     1      -1.295 -10.772  -1.173  0.00  0.00    +0.000 C 
ATOM     39  C   UNL     1      -0.596  -9.734  -2.075  0.00  0.00    +0.000 C 
ATOM     40  C   UNL     1       0.728  -9.201  -1.499  0.00  0.00    +0.000 C 
ATOM     41  O   UNL     1      -1.521  -8.670  -2.373  0.00  0.00    +0.000 OA
BRANCH  37  42
ATOM     42  N   UNL     1      -0.731  -9.805   1.132  0.00  0.00    +0.000 NA
ATOM     43  H   UNL     1      -0.231  -8.947   0.921  0.00  0.00    +0.000 HD
ATOM     44  H   UNL     1      -0.038 -10.549   1.184  0.00  0.00    +0.000 HD
ENDBRANCH  37  42
BRANCH  38  45
ATOM     45  O   UNL     1      -0.494 -11.922  -0.924  0.00  0.00    +0.000 OA
ATOM     46  H   UNL     1       0.311 -11.640  -0.467  0.00  0.00    +0.000 HD
ENDBRANCH  38  45
ENDBRANCH  34  35
ENDBRANCH  16  34
TORSDOF 11
