REMARK  Name = Doxycycline
REMARK  10 active torsions:
REMARK  status: ('A' for Active; 'I' for Inactive)
REMARK    1  A    between atoms: C_3  and  C_4
REMARK    2  A    between atoms: C_9  and  O_10
REMARK    3  A    between atoms: C_15  and  O_16
REMARK    4  A    between atoms: C_17  and  O_18
REMARK    5  A    between atoms: C_21  and  C_22
REMARK    6  A    between atoms: C_25  and  O_26
REMARK    7  A    between atoms: C_27  and  N_28
REMARK    8  A    between atoms: N_28  and  C_29
REMARK    9  A    between atoms: N_28  and  C_30
REMARK   10  A    between atoms: C_33  and  O_34
REMARK                            x       y       z     vdW  Elec       q    Type
REMARK                         _______ _______ _______ _____ _____    ______ ____
ROOT
ATOM      1  C   UNL     1       2.163   0.058   0.060  0.00  0.00    +0.000 C 
ATOM      2  C   UNL     1       2.508  -0.663   1.374  0.00  0.00    +0.000 C 
ATOM      3  C   UNL     1       1.624  -0.117   2.516  0.00  0.00    +0.000 C 
ATOM      4  C   UNL     1       2.342  -2.161   1.298  0.00  0.00    +0.000 A 
ATOM      5  C   UNL     1       2.156  -2.877   2.496  0.00  0.00    +0.000 A 
ATOM      6  C   UNL     1       1.995  -4.247   2.509  0.00  0.00    +0.000 A 
ATOM      7  C   UNL     1       2.074  -4.946   1.317  0.00  0.00    +0.000 A 
ATOM      8  C   UNL     1       2.294  -4.264   0.116  0.00  0.00    +0.000 A 
ATOM      9  C   UNL     1       2.424  -2.866   0.089  0.00  0.00    +0.000 A 
ATOM     10  C   UNL     1       2.683  -2.147  -1.188  0.00  0.00    +0.000 C 
ATOM     11  O   UNL     1       2.974  -2.735  -2.228  0.00  0.00    +0.000 OA
ATOM     12  C   UNL     1       2.629  -0.653  -1.188  0.00  0.00    +0.000 C 
ATOM     13  C   UNL     1       2.981   0.012  -2.315  0.00  0.00    +0.000 C 
ATOM     14  C   UNL     1       2.931   1.522  -2.456  0.00  0.00    +0.000 C 
ATOM     15  C   UNL     1       4.239   2.146  -2.905  0.00  0.00    +0.000 C 
ATOM     16  O   UNL     1       5.316   1.552  -2.757  0.00  0.00    +0.000 OA
ATOM     17  C   UNL     1       4.260   3.623  -3.205  0.00  0.00    +0.000 C 
ATOM     18  C   UNL     1       4.366   4.098  -1.963  0.00  0.00    +0.000 C 
ATOM     19  C   UNL     1       2.993   3.777  -1.004  0.00  0.00    +0.000 C 
ATOM     20  C   UNL     1       2.598   2.236  -1.141  0.00  0.00    +0.000 C 
ATOM     21  C   UNL     1       2.806   1.473   0.139  0.00  0.00    +0.000 C 
ENDROOT
BRANCH  17  22
ATOM     22  C   UNL     1       3.174   4.582  -3.621  0.00  0.00    +0.000 C 
ATOM     23  N   UNL     1       3.415   5.945  -3.442  0.00  0.00    +0.000 N 
ATOM     24  O   UNL     1       2.051   4.218  -3.981  0.00  0.00    +0.000 OA
ATOM     25  H   UNL     1       4.229   6.255  -2.909  0.00  0.00    +0.000 HD
ATOM     26  H   UNL     1       2.600   6.488  -3.179  0.00  0.00    +0.000 HD
ENDBRANCH  17  22
BRANCH  19  27
ATOM     27  N   UNL     1       1.605   4.411  -0.958  0.00  0.00    +0.000 NA
ATOM     28  C   UNL     1       0.369   3.922  -1.642  0.00  0.00    +0.000 C 
ATOM     29  C   UNL     1       1.457   5.815  -0.690  0.00  0.00    +0.000 C 
ENDBRANCH  19  27
BRANCH   8  30
ATOM     30  O   UNL     1       2.364  -4.989  -1.040  0.00  0.00    +0.000 OA
ATOM     31  H   UNL     1       2.296  -5.937  -0.855  0.00  0.00    +0.000 HD
ENDBRANCH   8  30
BRANCH  13  32
ATOM     32  O   UNL     1       3.343  -0.628  -3.496  0.00  0.00    +0.000 OA
ATOM     33  H   UNL     1       3.376  -1.599  -3.318  0.00  0.00    +0.000 HD
ENDBRANCH  13  32
BRANCH  14  34
ATOM     34  O   UNL     1       1.925   1.730  -3.442  0.00  0.00    +0.000 OA
ATOM     35  H   UNL     1       2.250   1.296  -4.256  0.00  0.00    +0.000 HD
ENDBRANCH  14  34
BRANCH  18  36
ATOM     36  O   UNL     1       5.274   5.215  -1.864  0.00  0.00    +0.000 OA
ATOM     37  H   UNL     1       5.875   5.193  -2.671  0.00  0.00    +0.000 HD
ENDBRANCH  18  36
BRANCH  21  38
ATOM     38  O   UNL     1       2.204   2.253   1.178  0.00  0.00    +0.000 OA
ATOM     39  H   UNL     1       1.234   2.272   1.046  0.00  0.00    +0.000 HD
ENDBRANCH  21  38
TORSDOF 7
