REMARK  Name = Doxylamine
REMARK  9 active torsions:
REMARK  status: ('A' for Active; 'I' for Inactive)
REMARK    1  A    between atoms: C_1  and  N_2
REMARK    2  A    between atoms: N_2  and  C_3
REMARK    3  A    between atoms: N_2  and  C_4
REMARK    4  A    between atoms: C_4  and  C_5
REMARK    5  A    between atoms: C_5  and  O_6
REMARK    6  A    between atoms: O_6  and  C_7
REMARK    7  A    between atoms: C_7  and  C_8
REMARK    8  A    between atoms: C_7  and  C_9
REMARK    9  A    between atoms: C_7  and  C_15
REMARK                            x       y       z     vdW  Elec       q    Type
REMARK                         _______ _______ _______ _____ _____    ______ ____
ROOT
ATOM      1  C   UNL     1       6.475   1.881   2.082  0.00  0.00    +0.000 C 
ATOM      2  C   UNL     1       7.006   0.471   2.490  0.00  0.00    +0.000 C 
ENDROOT
BRANCH   1   3
ATOM      3  C   UNL     1       7.005   2.318   0.675  0.00  0.00    +0.000 A 
ATOM      4  C   UNL     1       7.638   1.417  -0.205  0.00  0.00    +0.000 A 
ATOM      5  C   UNL     1       8.134   1.836  -1.446  0.00  0.00    +0.000 A 
ATOM      6  C   UNL     1       7.995   3.155  -1.858  0.00  0.00    +0.000 A 
ATOM      7  C   UNL     1       7.314   4.049  -1.050  0.00  0.00    +0.000 A 
ATOM      8  C   UNL     1       6.792   3.612   0.164  0.00  0.00    +0.000 A 
ENDBRANCH   1   3
BRANCH   1   9
ATOM      9  C   UNL     1       6.859   2.886   3.214  0.00  0.00    +0.000 A 
ATOM     10  C   UNL     1       6.429   4.216   3.173  0.00  0.00    +0.000 A 
ATOM     11  C   UNL     1       6.866   5.143   4.106  0.00  0.00    +0.000 A 
ATOM     12  C   UNL     1       7.589   4.691   5.194  0.00  0.00    +0.000 A 
ATOM     13  C   UNL     1       7.884   3.341   5.254  0.00  0.00    +0.000 A 
ATOM     14  N   UNL     1       7.582   2.448   4.283  0.00  0.00    +0.000 NA
ENDBRANCH   1   9
BRANCH   1  15
ATOM     15  O   UNL     1       5.021   1.847   2.080  0.00  0.00    +0.000 OA
BRANCH  15  16
ATOM     16  C   UNL     1       4.492   0.952   1.110  0.00  0.00    +0.000 C 
BRANCH  16  17
ATOM     17  C   UNL     1       2.972   0.980   1.068  0.00  0.00    +0.000 C 
BRANCH  17  19
ATOM     18  C   UNL     1       1.013   0.025   0.065  0.00  0.00    +0.000 C 
ATOM     19  N   UNL     1       2.472   0.049   0.036  0.00  0.00    +0.000 NA
ATOM     20  C   UNL     1       2.939   0.412  -1.307  0.00  0.00    +0.000 C 
ENDBRANCH  17  19
ENDBRANCH  16  17
ENDBRANCH  15  16
ENDBRANCH   1  15
TORSDOF 6
