REMARK  Name = Drometrizole trisiloxane
REMARK  19 active torsions:
REMARK  status: ('A' for Active; 'I' for Inactive)
REMARK    1  A    between atoms: C_1  and  C_2
REMARK    2  A    between atoms: C_2  and  C_3
REMARK    3  A    between atoms: C_2  and  C_21
REMARK    4  A    between atoms: C_3  and  C_4
REMARK    5  A    between atoms: C_5  and  O_6
REMARK    6  A    between atoms: C_7  and  N_12
REMARK    7  A    between atoms: C_9  and  C_10
REMARK    8  A    between atoms: C_21  and  SI_22
REMARK    9  A    between atoms: SI_22  and  C_23
REMARK   10  A    between atoms: SI_22  and  O_24
REMARK   11  A    between atoms: SI_22  and  O_29
REMARK   12  A    between atoms: O_24  and  SI_25
REMARK   13  A    between atoms: SI_25  and  C_26
REMARK   14  A    between atoms: SI_25  and  C_27
REMARK   15  A    between atoms: SI_25  and  C_28
REMARK   16  A    between atoms: O_29  and  SI_30
REMARK   17  A    between atoms: SI_30  and  C_31
REMARK   18  A    between atoms: SI_30  and  C_32
REMARK   19  A    between atoms: SI_30  and  C_33
REMARK                            x       y       z     vdW  Elec       q    Type
REMARK                         _______ _______ _______ _____ _____    ______ ____
ROOT
ATOM      1  C   UNL     1       1.746  -1.683  -1.285  0.00  0.00    +0.000 A 
ATOM      2  C   UNL     1       0.964  -1.931  -2.431  0.00  0.00    +0.000 A 
ATOM      3  C   UNL     1       0.849  -3.229  -2.920  0.00  0.00    +0.000 A 
ATOM      4  C   UNL     1       1.552  -4.323  -2.384  0.00  0.00    +0.000 A 
ATOM      5  C   UNL     1       2.415  -4.115  -1.298  0.00  0.00    +0.000 A 
ATOM      6  C   UNL     1       3.337  -5.219  -0.829  0.00  0.00    +0.000 C 
ATOM      7  C   UNL     1       2.435  -2.826  -0.724  0.00  0.00    +0.000 A 
ENDROOT
BRANCH   3   8
ATOM      8  N   UNL     1      -0.085  -3.496  -3.956  0.00  0.00    +0.000 N 
ATOM      9  N   UNL     1       0.020  -2.957  -5.186  0.00  0.00    +0.000 NA
ATOM     10  C   UNL     1      -1.122  -3.404  -5.784  0.00  0.00    +0.000 A 
ATOM     11  C   UNL     1      -1.601  -3.166  -7.071  0.00  0.00    +0.000 A 
ATOM     12  C   UNL     1      -2.848  -3.771  -7.348  0.00  0.00    +0.000 A 
ATOM     13  C   UNL     1      -3.564  -4.545  -6.393  0.00  0.00    +0.000 A 
ATOM     14  C   UNL     1      -3.088  -4.801  -5.097  0.00  0.00    +0.000 A 
ATOM     15  C   UNL     1      -1.839  -4.231  -4.819  0.00  0.00    +0.000 A 
ATOM     16  N   UNL     1      -1.095  -4.350  -3.705  0.00  0.00    +0.000 NA
ENDBRANCH   3   8
BRANCH   2  17
ATOM     17  O   UNL     1       0.333  -0.912  -3.093  0.00  0.00    +0.000 OA
ATOM     18  H   UNL     1       0.705  -0.060  -2.858  0.00  0.00    +0.000 HD
ENDBRANCH   2  17
BRANCH   1  19
ATOM     19  C   UNL     1       2.151  -0.219  -0.919  0.00  0.00    +0.000 C 
BRANCH  19  21
ATOM     20  C   UNL     1       0.510   0.316   0.556  0.00  0.00    +0.000 C 
ATOM     21  C   UNL     1       2.013   0.257   0.487  0.00  0.00    +0.000 C 
BRANCH  21  22
ATOM     22  C   UNL     1       2.799   1.608   0.637  0.00  0.00    +0.000 C 
BRANCH  22  23
ATOM     23 SI   UNL     1       4.807   1.425   0.451  0.00  0.00    +0.000 Si
ATOM     24  C   UNL     1       5.263   0.210   1.826  0.00  0.00    +0.000 C 
BRANCH  23  25
ATOM     25  O   UNL     1       5.344   0.854  -1.096  0.00  0.00    +0.000 OA
BRANCH  25  26
ATOM     26 SI   UNL     1       5.638  -0.646  -1.871  0.00  0.00    +0.000 Si
ATOM     27  C   UNL     1       5.908  -1.989  -0.567  0.00  0.00    +0.000 C 
ATOM     28  C   UNL     1       3.974  -1.128  -2.657  0.00  0.00    +0.000 C 
ATOM     29  C   UNL     1       6.086  -1.016  -3.632  0.00  0.00    +0.000 C 
ENDBRANCH  25  26
ENDBRANCH  23  25
BRANCH  23  30
ATOM     30  O   UNL     1       5.628   2.873   0.771  0.00  0.00    +0.000 OA
BRANCH  30  31
ATOM     31 SI   UNL     1       7.307   3.118   0.834  0.00  0.00    +0.000 Si
ATOM     32  C   UNL     1       8.044   1.957   2.124  0.00  0.00    +0.000 C 
ATOM     33  C   UNL     1       7.970   2.660  -0.861  0.00  0.00    +0.000 C 
ATOM     34  C   UNL     1       7.829   4.839   1.289  0.00  0.00    +0.000 C 
ENDBRANCH  30  31
ENDBRANCH  23  30
ENDBRANCH  22  23
ENDBRANCH  21  22
ENDBRANCH  19  21
ENDBRANCH   1  19
TORSDOF 10
