REMARK  Name = Dronabinol
REMARK  9 active torsions:
REMARK  status: ('A' for Active; 'I' for Inactive)
REMARK    1  A    between atoms: C_4  and  C_5
REMARK    2  A    between atoms: C_10  and  C_11
REMARK    3  A    between atoms: C_10  and  C_12
REMARK    4  A    between atoms: C_16  and  O_17
REMARK    5  A    between atoms: C_19  and  C_20
REMARK    6  A    between atoms: C_20  and  C_21
REMARK    7  A    between atoms: C_21  and  C_22
REMARK    8  A    between atoms: C_22  and  C_23
REMARK    9  A    between atoms: C_23  and  C_24
REMARK                            x       y       z     vdW  Elec       q    Type
REMARK                         _______ _______ _______ _____ _____    ______ ____
ROOT
ATOM      1  C   UNL     1       2.039   0.270  -0.051  0.00  0.00    +0.000 C 
ATOM      2  C   UNL     1       2.651   1.140   1.007  0.00  0.00    +0.000 C 
ATOM      3  C   UNL     1       3.870   0.822   1.349  0.00  0.00    +0.000 C 
ATOM      4  C   UNL     1       5.025   0.445   0.404  0.00  0.00    +0.000 C 
ATOM      5  C   UNL     1       3.592  -0.158   2.446  0.00  0.00    +0.000 C 
ATOM      6  C   UNL     1       2.615  -1.356   1.721  0.00  0.00    +0.000 C 
ATOM      7  C   UNL     1       2.583  -1.219   0.092  0.00  0.00    +0.000 C 
ATOM      8  C   UNL     1       1.939  -1.903  -1.203  0.00  0.00    +0.000 C 
ATOM      9  C   UNL     1       2.134  -3.390  -1.627  0.00  0.00    +0.000 C 
ATOM     10  C   UNL     1       0.406  -1.792  -1.221  0.00  0.00    +0.000 C 
ATOM     11  O   UNL     1       2.553  -1.214  -2.381  0.00  0.00    +0.000 OA
ATOM     12  C   UNL     1       2.666   0.151  -2.392  0.00  0.00    +0.000 A 
ATOM     13  C   UNL     1       2.264   0.946  -1.338  0.00  0.00    +0.000 A 
ATOM     14  C   UNL     1       2.270   2.355  -1.420  0.00  0.00    +0.000 A 
ATOM     15  C   UNL     1       2.835   2.980  -2.488  0.00  0.00    +0.000 A 
ATOM     16  C   UNL     1       3.328   2.208  -3.530  0.00  0.00    +0.000 A 
ATOM     17  C   UNL     1       3.251   0.791  -3.475  0.00  0.00    +0.000 A 
ENDROOT
BRANCH  14  18
ATOM     18  O   UNL     1       1.803   3.221  -0.468  0.00  0.00    +0.000 OA
ATOM     19  H   UNL     1       1.439   2.737   0.285  0.00  0.00    +0.000 HD
ENDBRANCH  14  18
BRANCH  16  20
ATOM     20  C   UNL     1       3.843   2.991  -4.697  0.00  0.00    +0.000 C 
BRANCH  20  21
ATOM     21  C   UNL     1       4.247   2.091  -5.839  0.00  0.00    +0.000 C 
BRANCH  21  22
ATOM     22  C   UNL     1       4.705   2.891  -7.032  0.00  0.00    +0.000 C 
BRANCH  22  23
ATOM     23  C   UNL     1       5.100   1.926  -8.138  0.00  0.00    +0.000 C 
ATOM     24  C   UNL     1       5.572   2.696  -9.349  0.00  0.00    +0.000 C 
ENDBRANCH  22  23
ENDBRANCH  21  22
ENDBRANCH  20  21
ENDBRANCH  16  20
TORSDOF 5
