REMARK  Name = Dronedarone
REMARK  22 active torsions:
REMARK  status: ('A' for Active; 'I' for Inactive)
REMARK    1  A    between atoms: C_1  and  C_2
REMARK    2  A    between atoms: C_2  and  C_3
REMARK    3  A    between atoms: C_3  and  C_4
REMARK    4  A    between atoms: C_4  and  N_5
REMARK    5  A    between atoms: N_5  and  C_6
REMARK    6  A    between atoms: N_5  and  C_10
REMARK    7  A    between atoms: C_6  and  C_7
REMARK    8  A    between atoms: C_7  and  C_8
REMARK    9  A    between atoms: C_8  and  C_9
REMARK   10  A    between atoms: C_10  and  C_11
REMARK   11  A    between atoms: C_11  and  C_12
REMARK   12  A    between atoms: C_12  and  O_13
REMARK   13  A    between atoms: O_13  and  C_14
REMARK   14  A    between atoms: C_17  and  C_20
REMARK   15  A    between atoms: C_20  and  C_22
REMARK   16  A    between atoms: C_23  and  C_24
REMARK   17  A    between atoms: C_24  and  C_25
REMARK   18  A    between atoms: C_25  and  C_26
REMARK   19  A    between atoms: C_26  and  C_27
REMARK   20  A    between atoms: C_32  and  N_33
REMARK   21  A    between atoms: N_33  and  S_34
REMARK   22  A    between atoms: S_34  and  C_35
REMARK                            x       y       z     vdW  Elec       q    Type
REMARK                         _______ _______ _______ _____ _____    ______ ____
ROOT
ATOM      1  C   UNL     1      15.033  -4.500   4.826  0.00  0.00    +0.000 C 
ATOM      2  O   UNL     1      15.026  -5.679   4.372  0.00  0.00    +0.000 OA
ENDROOT
BRANCH   1   3
ATOM      3  C   UNL     1      16.616  -3.686   5.231  0.00  0.00    +0.000 A 
ATOM      4  C   UNL     1      17.136  -4.543   4.283  0.00  0.00    +0.000 A 
ATOM      5  O   UNL     1      17.654  -3.604   3.456  0.00  0.00    +0.000 OA
ATOM      6  C   UNL     1      18.768  -3.512   4.165  0.00  0.00    +0.000 A 
ATOM      7  C   UNL     1      18.433  -3.231   5.555  0.00  0.00    +0.000 A 
ATOM      8  C   UNL     1      20.157  -3.253   5.784  0.00  0.00    +0.000 A 
ATOM      9  C   UNL     1      21.457  -3.848   5.047  0.00  0.00    +0.000 A 
ATOM     10  C   UNL     1      21.116  -4.424   3.904  0.00  0.00    +0.000 A 
ATOM     11  C   UNL     1      19.866  -4.147   3.484  0.00  0.00    +0.000 A 
BRANCH   9  12
ATOM     12  N   UNL     1      22.970  -3.941   5.281  0.00  0.00    +0.000 N 
ATOM     13  H   UNL     1      23.546  -3.304   5.846  0.00  0.00    +0.000 HD
BRANCH  12  14
ATOM     14  S   UNL     1      24.084  -4.915   4.175  0.00  0.00    +0.000 S 
ATOM     15  C   UNL     1      23.483  -6.598   4.414  0.00  0.00    +0.000 C 
ATOM     16  O   UNL     1      23.880  -4.554   2.784  0.00  0.00    +0.000 OA
ATOM     17  O   UNL     1      25.427  -4.878   4.717  0.00  0.00    +0.000 OA
ENDBRANCH  12  14
ENDBRANCH   9  12
BRANCH   4  18
ATOM     18  C   UNL     1      17.766  -5.912   4.416  0.00  0.00    +0.000 C 
BRANCH  18  19
ATOM     19  C   UNL     1      16.750  -6.978   4.267  0.00  0.00    +0.000 C 
BRANCH  19  20
ATOM     20  C   UNL     1      17.196  -8.371   4.192  0.00  0.00    +0.000 C 
ATOM     21  C   UNL     1      15.935  -9.193   3.979  0.00  0.00    +0.000 C 
ENDBRANCH  19  20
ENDBRANCH  18  19
ENDBRANCH   4  18
ENDBRANCH   1   3
BRANCH   1  25
ATOM     22  C   UNL     1      10.536  -4.543   3.481  0.00  0.00    +0.000 A 
ATOM     23  C   UNL     1      11.190  -5.757   3.531  0.00  0.00    +0.000 A 
ATOM     24  C   UNL     1      12.574  -5.754   3.995  0.00  0.00    +0.000 A 
ATOM     25  C   UNL     1      13.418  -4.506   4.409  0.00  0.00    +0.000 A 
ATOM     26  C   UNL     1      12.693  -3.375   4.201  0.00  0.00    +0.000 A 
ATOM     27  C   UNL     1      11.305  -3.403   3.792  0.00  0.00    +0.000 A 
BRANCH  22  28
ATOM     28  O   UNL     1       9.178  -4.526   3.245  0.00  0.00    +0.000 OA
BRANCH  28  29
ATOM     29  C   UNL     1       8.665  -3.374   2.549  0.00  0.00    +0.000 C 
BRANCH  29  30
ATOM     30  C   UNL     1       7.138  -3.372   2.563  0.00  0.00    +0.000 C 
BRANCH  30  31
ATOM     31  C   UNL     1       6.559  -2.230   1.706  0.00  0.00    +0.000 C 
BRANCH  31  32
ATOM     32  N   UNL     1       5.073  -2.219   1.673  0.00  0.00    +0.000 NA
BRANCH  32  33
ATOM     33  C   UNL     1       4.586  -3.512   1.129  0.00  0.00    +0.000 C 
BRANCH  33  34
ATOM     34  C   UNL     1       3.087  -3.715   1.192  0.00  0.00    +0.000 C 
BRANCH  34  35
ATOM     35  C   UNL     1       2.567  -4.997   0.608  0.00  0.00    +0.000 C 
ATOM     36  C   UNL     1       1.044  -4.884   0.572  0.00  0.00    +0.000 C 
ENDBRANCH  34  35
ENDBRANCH  33  34
ENDBRANCH  32  33
BRANCH  32  37
ATOM     37  C   UNL     1       4.628  -1.036   0.884  0.00  0.00    +0.000 C 
BRANCH  37  38
ATOM     38  C   UNL     1       3.123  -0.809   0.893  0.00  0.00    +0.000 C 
BRANCH  38  40
ATOM     39  C   UNL     1       1.054   0.177   0.028  0.00  0.00    +0.000 C 
ATOM     40  C   UNL     1       2.580   0.304   0.040  0.00  0.00    +0.000 C 
ENDBRANCH  38  40
ENDBRANCH  37  38
ENDBRANCH  32  37
ENDBRANCH  31  32
ENDBRANCH  30  31
ENDBRANCH  29  30
ENDBRANCH  28  29
ENDBRANCH  22  28
ENDBRANCH   1  25
TORSDOF 18
