REMARK  Name = Droperidol
REMARK  6 active torsions:
REMARK  status: ('A' for Active; 'I' for Inactive)
REMARK    1  A    between atoms: C_5  and  C_8
REMARK    2  A    between atoms: C_8  and  C_10
REMARK    3  A    between atoms: C_10  and  C_11
REMARK    4  A    between atoms: C_11  and  C_12
REMARK    5  A    between atoms: C_12  and  N_13
REMARK    6  A    between atoms: C_16  and  N_19
REMARK                            x       y       z     vdW  Elec       q    Type
REMARK                         _______ _______ _______ _____ _____    ______ ____
ROOT
ATOM      1  N   UNL     1      -7.909   2.118  -0.009  0.00  0.00    +0.000 NA
ATOM      2  C   UNL     1      -8.261   0.876  -0.716  0.00  0.00    +0.000 C 
ATOM      3  C   UNL     1      -9.760   0.600  -0.741  0.00  0.00    +0.000 C 
ATOM      4  C   UNL     1     -10.514   1.809  -1.198  0.00  0.00    +0.000 C 
ATOM      5  C   UNL     1      -9.947   3.025  -1.148  0.00  0.00    +0.000 C 
ATOM      6  C   UNL     1      -8.588   3.291  -0.584  0.00  0.00    +0.000 C 
ENDROOT
BRANCH   4   7
ATOM      7  N   UNL     1     -11.749   1.619  -1.764  0.00  0.00    +0.000 N 
ATOM      8  C   UNL     1     -12.103   2.031  -3.084  0.00  0.00    +0.000 A 
ATOM      9  O   UNL     1     -11.400   2.558  -3.938  0.00  0.00    +0.000 OA
ATOM     10  N   UNL     1     -13.450   1.682  -3.266  0.00  0.00    +0.000 N 
ATOM     11  C   UNL     1     -13.926   1.085  -2.106  0.00  0.00    +0.000 A 
ATOM     12  C   UNL     1     -15.195   0.632  -1.826  0.00  0.00    +0.000 A 
ATOM     13  C   UNL     1     -15.412   0.106  -0.549  0.00  0.00    +0.000 A 
ATOM     14  C   UNL     1     -14.372   0.055   0.401  0.00  0.00    +0.000 A 
ATOM     15  C   UNL     1     -13.090   0.524   0.090  0.00  0.00    +0.000 A 
ATOM     16  C   UNL     1     -12.886   1.025  -1.180  0.00  0.00    +0.000 A 
ATOM     17  H   UNL     1     -13.955   1.858  -4.118  0.00  0.00    +0.000 HD
ENDBRANCH   4   7
BRANCH   1  18
ATOM     18  C   UNL     1      -6.455   2.360   0.014  0.00  0.00    +0.000 C 
BRANCH  18  19
ATOM     19  C   UNL     1      -5.640   1.072   0.045  0.00  0.00    +0.000 C 
BRANCH  19  20
ATOM     20  C   UNL     1      -4.153   1.325   0.036  0.00  0.00    +0.000 C 
BRANCH  20  21
ATOM     21  C   UNL     1      -3.424  -0.004   0.012  0.00  0.00    +0.000 C 
ATOM     22  O   UNL     1      -4.007  -1.086  -0.006  0.00  0.00    +0.000 OA
BRANCH  21  27
ATOM     23  F   UNL     1       2.171  -0.020  -0.001  0.00  0.00    +0.000 F 
ATOM     24  C   UNL     1       0.833  -0.010  -0.001  0.00  0.00    +0.000 A 
ATOM     25  C   UNL     1       0.138  -1.214   0.001  0.00  0.00    +0.000 A 
ATOM     26  C   UNL     1      -1.255  -1.202  -0.002  0.00  0.00    +0.000 A 
ATOM     27  C   UNL     1      -1.942   0.019   0.004  0.00  0.00    +0.000 A 
ATOM     28  C   UNL     1      -1.230   1.226   0.003  0.00  0.00    +0.000 A 
ATOM     29  C   UNL     1       0.163   1.207  -0.003  0.00  0.00    +0.000 A 
ENDBRANCH  21  27
ENDBRANCH  20  21
ENDBRANCH  19  20
ENDBRANCH  18  19
ENDBRANCH   1  18
TORSDOF 6
