REMARK  Name = Drostanolone propionate
REMARK  7 active torsions:
REMARK  status: ('A' for Active; 'I' for Inactive)
REMARK    1  A    between atoms: C_5  and  O_6
REMARK    2  A    between atoms: O_6  and  C_7
REMARK    3  A    between atoms: C_7  and  C_9
REMARK    4  A    between atoms: C_9  and  C_10
REMARK    5  A    between atoms: C_11  and  C_12
REMARK    6  A    between atoms: C_26  and  C_27
REMARK    7  A    between atoms: C_29  and  C_30
REMARK                            x       y       z     vdW  Elec       q    Type
REMARK                         _______ _______ _______ _____ _____    ______ ____
ROOT
ATOM      1  C   UNL     1       1.830  -0.117  -0.109  0.00  0.00    +0.000 C 
ATOM      2  C   UNL     1       2.274  -0.123  -1.462  0.00  0.00    +0.000 C 
ATOM      3  C   UNL     1       3.411  -0.439  -0.538  0.00  0.00    +0.000 C 
ATOM      4  C   UNL     1       2.805  -0.871   1.425  0.00  0.00    +0.000 C 
ATOM      5  C   UNL     1       2.732  -1.680   0.302  0.00  0.00    +0.000 C 
ATOM      6  C   UNL     1       2.056  -2.894  -0.109  0.00  0.00    +0.000 C 
ATOM      7  C   UNL     1       4.539  -1.686   0.775  0.00  0.00    +0.000 C 
ATOM      8  C   UNL     1       4.970  -0.138   1.489  0.00  0.00    +0.000 C 
ATOM      9  C   UNL     1       4.290   1.282   0.882  0.00  0.00    +0.000 C 
ATOM     10  C   UNL     1       2.585   1.328   0.712  0.00  0.00    +0.000 C 
ATOM     11  C   UNL     1       2.115   2.569  -0.006  0.00  0.00    +0.000 C 
ATOM     12  C   UNL     1       2.681   3.810   0.637  0.00  0.00    +0.000 C 
ATOM     13  C   UNL     1       4.208   3.837   0.725  0.00  0.00    +0.000 C 
ATOM     14  C   UNL     1       4.794   4.093  -0.650  0.00  0.00    +0.000 C 
ATOM     15  C   UNL     1       6.262   4.394  -0.427  0.00  0.00    +0.000 C 
ATOM     16  O   UNL     1       6.717   5.246   0.327  0.00  0.00    +0.000 OA
ATOM     17  C   UNL     1       7.104   3.300  -0.905  0.00  0.00    +0.000 C 
ATOM     18  C   UNL     1       6.924   3.788  -2.553  0.00  0.00    +0.000 C 
ATOM     19  C   UNL     1       6.540   2.546   0.679  0.00  0.00    +0.000 C 
ATOM     20  C   UNL     1       4.896   2.589   1.352  0.00  0.00    +0.000 C 
ATOM     21  C   UNL     1       4.478   2.556   2.872  0.00  0.00    +0.000 C 
ENDROOT
BRANCH   4  22
ATOM     22  O   UNL     1       2.970  -2.210   2.500  0.00  0.00    +0.000 OA
BRANCH  22  23
ATOM     23  C   UNL     1       2.409  -2.429   3.794  0.00  0.00    +0.000 C 
ATOM     24  O   UNL     1       1.633  -1.634   4.319  0.00  0.00    +0.000 OA
BRANCH  23  25
ATOM     25  C   UNL     1       2.821  -3.779   4.604  0.00  0.00    +0.000 C 
ATOM     26  C   UNL     1       2.322  -3.899   6.099  0.00  0.00    +0.000 C 
ENDBRANCH  23  25
ENDBRANCH  22  23
ENDBRANCH   4  22
TORSDOF 3
