REMARK  Name = Drospirenone
REMARK  2 active torsions:
REMARK  status: ('A' for Active; 'I' for Inactive)
REMARK    1  A    between atoms: C_21  and  C_22
REMARK    2  A    between atoms: C_27  and  C_28
REMARK                            x       y       z     vdW  Elec       q    Type
REMARK                         _______ _______ _______ _____ _____    ______ ____
ROOT
ATOM      1  C   UNL     1       1.813   0.182  -0.788  0.00  0.00    +0.000 C 
ATOM      2  C   UNL     1       1.741  -1.012  -1.809  0.00  0.00    +0.000 C 
ATOM      3  C   UNL     1       2.508  -1.234  -0.571  0.00  0.00    +0.000 C 
ATOM      4  C   UNL     1       3.984  -1.429  -0.687  0.00  0.00    +0.000 C 
ATOM      5  C   UNL     1       4.485  -2.686  -1.411  0.00  0.00    +0.000 C 
ATOM      6  C   UNL     1       4.271  -3.869  -0.545  0.00  0.00    +0.000 C 
ATOM      7  C   UNL     1       5.263  -4.997  -0.216  0.00  0.00    +0.000 C 
ATOM      8  C   UNL     1       5.284  -3.758   0.583  0.00  0.00    +0.000 C 
ATOM      9  C   UNL     1       6.456  -2.658   0.076  0.00  0.00    +0.000 C 
ATOM     10  C   UNL     1       7.991  -2.677   0.015  0.00  0.00    +0.000 C 
ATOM     11  C   UNL     1       8.534  -1.914   1.197  0.00  0.00    +0.000 C 
ATOM     12  C   UNL     1       7.413  -0.983   1.466  0.00  0.00    +0.000 C 
ATOM     13  O   UNL     1       7.504   0.058   2.098  0.00  0.00    +0.000 OA
ATOM     14  O   UNL     1       6.265  -1.471   0.899  0.00  0.00    +0.000 OA
ATOM     15  C   UNL     1       6.021  -2.643  -1.515  0.00  0.00    +0.000 C 
ATOM     16  C   UNL     1       6.528  -3.819  -2.405  0.00  0.00    +0.000 C 
ATOM     17  C   UNL     1       6.472  -1.473  -2.340  0.00  0.00    +0.000 C 
ATOM     18  C   UNL     1       6.079  -0.241  -1.669  0.00  0.00    +0.000 C 
ATOM     19  C   UNL     1       4.593  -0.257  -1.373  0.00  0.00    +0.000 C 
ATOM     20  C   UNL     1       4.214   0.915  -0.536  0.00  0.00    +0.000 C 
ATOM     21  C   UNL     1       4.649   1.077   0.919  0.00  0.00    +0.000 C 
ATOM     22  C   UNL     1       4.904   1.959  -1.180  0.00  0.00    +0.000 C 
ATOM     23  C   UNL     1       5.947   2.811  -1.548  0.00  0.00    +0.000 C 
ATOM     24  C   UNL     1       4.540   3.617  -2.064  0.00  0.00    +0.000 C 
ATOM     25  O   UNL     1       4.708   4.502  -2.838  0.00  0.00    +0.000 OA
ATOM     26  C   UNL     1       2.872   2.752  -1.591  0.00  0.00    +0.000 C 
ATOM     27  C   UNL     1       2.830   1.422  -0.998  0.00  0.00    +0.000 C 
ENDROOT
TORSDOF 0
