REMARK  Name = Drotaverine
REMARK  13 active torsions:
REMARK  status: ('A' for Active; 'I' for Inactive)
REMARK    1  A    between atoms: C_1  and  C_2
REMARK    2  A    between atoms: C_2  and  O_3
REMARK    3  A    between atoms: O_3  and  C_4
REMARK    4  A    between atoms: C_5  and  O_6
REMARK    5  A    between atoms: O_6  and  C_7
REMARK    6  A    between atoms: C_7  and  C_8
REMARK    7  A    between atoms: C_10  and  C_11
REMARK    8  A    between atoms: C_18  and  O_19
REMARK    9  A    between atoms: O_19  and  C_20
REMARK   10  A    between atoms: C_20  and  C_21
REMARK   11  A    between atoms: C_22  and  O_23
REMARK   12  A    between atoms: O_23  and  C_24
REMARK   13  A    between atoms: C_24  and  C_25
REMARK                            x       y       z     vdW  Elec       q    Type
REMARK                         _______ _______ _______ _____ _____    ______ ____
ROOT
ATOM      1  C   UNL     1       8.615  -2.783  -0.851  0.00  0.00    +0.000 C 
ATOM      2  C   UNL     1       9.320  -3.264   0.536  0.00  0.00    +0.000 C 
ATOM      3  N   UNL     1       9.192  -1.840   0.687  0.00  0.00    +0.000 N 
ATOM      4  C   UNL     1       9.938  -1.579   1.779  0.00  0.00    +0.000 C 
ATOM      5  C   UNL     1       8.716  -1.949   2.740  0.00  0.00    +0.000 C 
ATOM      6  C   UNL     1       9.691  -2.743   3.350  0.00  0.00    +0.000 A 
ATOM      7  C   UNL     1      10.414  -1.862   4.514  0.00  0.00    +0.000 A 
ATOM      8  C   UNL     1      11.510  -2.206   5.253  0.00  0.00    +0.000 A 
ATOM      9  C   UNL     1      11.645  -3.560   5.113  0.00  0.00    +0.000 A 
ATOM     10  C   UNL     1      10.904  -4.285   3.696  0.00  0.00    +0.000 A 
ATOM     11  C   UNL     1       9.833  -3.891   2.464  0.00  0.00    +0.000 A 
ATOM     12  H   UNL     1       8.201  -1.665   0.906  0.00  0.00    +0.000 HD
ENDROOT
BRANCH   1  16
ATOM     13  C   UNL     1       4.295  -0.783  -1.322  0.00  0.00    +0.000 A 
ATOM     14  C   UNL     1       4.948  -0.649  -2.544  0.00  0.00    +0.000 A 
ATOM     15  C   UNL     1       6.405  -1.165  -2.634  0.00  0.00    +0.000 A 
ATOM     16  C   UNL     1       7.157  -1.791  -1.445  0.00  0.00    +0.000 A 
ATOM     17  C   UNL     1       6.348  -1.682  -0.356  0.00  0.00    +0.000 A 
ATOM     18  C   UNL     1       5.044  -1.210  -0.259  0.00  0.00    +0.000 A 
BRANCH  13  19
ATOM     19  O   UNL     1       2.936  -0.729  -1.149  0.00  0.00    +0.000 OA
BRANCH  19  21
ATOM     20  C   UNL     1       0.980  -0.078   0.045  0.00  0.00    +0.000 C 
ATOM     21  C   UNL     1       2.495  -0.078   0.046  0.00  0.00    +0.000 C 
ENDBRANCH  19  21
ENDBRANCH  13  19
BRANCH  14  22
ATOM     22  O   UNL     1       4.266  -0.081  -3.647  0.00  0.00    +0.000 OA
BRANCH  22  23
ATOM     23  C   UNL     1       2.892   0.417  -3.414  0.00  0.00    +0.000 C 
ATOM     24  C   UNL     1       2.276   1.109  -4.624  0.00  0.00    +0.000 C 
ENDBRANCH  22  23
ENDBRANCH  14  22
ENDBRANCH   1  16
BRANCH   8  25
ATOM     25  O   UNL     1      12.213  -1.255   5.943  0.00  0.00    +0.000 OA
BRANCH  25  26
ATOM     26  C   UNL     1      13.414  -1.616   6.673  0.00  0.00    +0.000 C 
ATOM     27  C   UNL     1      14.277  -0.396   7.006  0.00  0.00    +0.000 C 
ENDBRANCH  25  26
ENDBRANCH   8  25
BRANCH   9  28
ATOM     28  O   UNL     1      12.255  -3.988   6.337  0.00  0.00    +0.000 OA
BRANCH  28  29
ATOM     29  C   UNL     1      12.613  -5.209   7.027  0.00  0.00    +0.000 C 
ATOM     30  C   UNL     1      13.629  -5.174   8.264  0.00  0.00    +0.000 C 
ENDBRANCH  28  29
ENDBRANCH   9  28
TORSDOF 9
