REMARK  Name = Droxidopa
REMARK  8 active torsions:
REMARK  status: ('A' for Active; 'I' for Inactive)
REMARK    1  A    between atoms: N_1  and  C_2
REMARK    2  A    between atoms: C_2  and  C_3
REMARK    3  A    between atoms: C_2  and  C_13
REMARK    4  A    between atoms: C_3  and  O_4
REMARK    5  A    between atoms: C_3  and  C_5
REMARK    6  A    between atoms: C_7  and  O_8
REMARK    7  A    between atoms: C_9  and  O_10
REMARK    8  A    between atoms: C_13  and  O_14
REMARK                            x       y       z     vdW  Elec       q    Type
REMARK                         _______ _______ _______ _____ _____    ______ ____
ROOT
ATOM      1  C   UNK     1       3.044   1.369   0.424  0.00  0.00    +0.000 C 
ENDROOT
BRANCH   1   2
ATOM      2  C   UNK     1       2.569   2.397  -0.606  0.00  0.00    +0.000 A 
ATOM      3  C   UNK     1       2.802   3.769  -0.385  0.00  0.00    +0.000 A 
ATOM      4  C   UNK     1       2.535   4.708  -1.378  0.00  0.00    +0.000 A 
ATOM      5  C   UNK     1       1.980   4.305  -2.584  0.00  0.00    +0.000 A 
ATOM      6  C   UNK     1       1.665   2.974  -2.800  0.00  0.00    +0.000 A 
ATOM      7  C   UNK     1       1.954   2.024  -1.815  0.00  0.00    +0.000 A 
BRANCH   4   8
ATOM      8  O   UNK     1       2.826   6.033  -1.206  0.00  0.00    +0.000 OA
ATOM      9  H   UNK     1       3.228   6.145  -0.325  0.00  0.00    +0.000 HD
ENDBRANCH   4   8
BRANCH   5  10
ATOM     10  O   UNK     1       1.735   5.207  -3.577  0.00  0.00    +0.000 OA
ATOM     11  H   UNK     1       2.032   6.066  -3.218  0.00  0.00    +0.000 HD
ENDBRANCH   5  10
ENDBRANCH   1   2
BRANCH   1  12
ATOM     12  O   UNK     1       2.522   0.067   0.103  0.00  0.00    +0.000 OA
ATOM     13  H   UNK     1       2.874  -0.188  -0.764  0.00  0.00    +0.000 HD
ENDBRANCH   1  12
BRANCH   1  14
ATOM     14  C   UNK     1       4.612   1.318   0.500  0.00  0.00    +0.000 C 
BRANCH  14  15
ATOM     15  N   UNK     1       5.192  -0.063   0.640  0.00  0.00    +0.000 NA
ATOM     16  H   UNK     1       6.182  -0.031   0.386  0.00  0.00    +0.000 HD
ATOM     17  H   UNK     1       4.768  -0.641  -0.093  0.00  0.00    +0.000 HD
ENDBRANCH  14  15
BRANCH  14  18
ATOM     18  C   UNK     1       5.117   2.186   1.670  0.00  0.00    +0.000 C 
ATOM     19  O   UNK     1       4.898   3.386   1.801  0.00  0.00    +0.000 OA
BRANCH  18  20
ATOM     20  O   UNK     1       5.884   1.511   2.559  0.00  0.00    +0.000 OA
ATOM     21  H   UNK     1       5.880   0.557   2.317  0.00  0.00    +0.000 HD
ENDBRANCH  18  20
ENDBRANCH  14  18
ENDBRANCH   1  14
TORSDOF 8
