REMARK  Name = Duloxetine
REMARK  7 active torsions:
REMARK  status: ('A' for Active; 'I' for Inactive)
REMARK    1  A    between atoms: C_1  and  N_2
REMARK    2  A    between atoms: N_2  and  C_3
REMARK    3  A    between atoms: C_3  and  C_4
REMARK    4  A    between atoms: C_4  and  C_5
REMARK    5  A    between atoms: C_5  and  O_6
REMARK    6  A    between atoms: C_5  and  C_17
REMARK    7  A    between atoms: O_6  and  C_7
REMARK                            x       y       z     vdW  Elec       q    Type
REMARK                         _______ _______ _______ _____ _____    ______ ____
ROOT
ATOM      1  C   UNL     1       5.168  -1.830   2.128  0.00  0.00    +0.000 C 
ENDROOT
BRANCH   1   2
ATOM      2  C   UNL     1       6.693  -1.739   2.150  0.00  0.00    +0.000 A 
ATOM      3  C   UNL     1       7.463  -0.579   2.159  0.00  0.00    +0.000 A 
ATOM      4  C   UNL     1       8.866  -0.817   2.172  0.00  0.00    +0.000 A 
ATOM      5  C   UNL     1       9.152  -2.156   2.191  0.00  0.00    +0.000 A 
ATOM      6  S   UNL     1       7.745  -3.085   2.317  0.00  0.00    +0.000 S 
ENDBRANCH   1   2
BRANCH   1   7
ATOM      7  C   UNL     1       4.434  -3.172   1.839  0.00  0.00    +0.000 C 
BRANCH   7   8
ATOM      8  C   UNL     1       5.177  -4.478   1.557  0.00  0.00    +0.000 C 
BRANCH   8  10
ATOM      9  C   UNL     1       4.907  -6.809   1.042  0.00  0.00    +0.000 C 
ATOM     10  N   UNL     1       4.212  -5.568   1.362  0.00  0.00    +0.000 NA
ATOM     11  H   UNL     1       3.687  -5.699   2.227  0.00  0.00    +0.000 HD
ENDBRANCH   8  10
ENDBRANCH   7   8
ENDBRANCH   1   7
BRANCH   1  12
ATOM     12  O   UNL     1       4.684  -0.875   1.136  0.00  0.00    +0.000 OA
BRANCH  12  13
ATOM     13  C   UNL     1       4.400   0.437   1.461  0.00  0.00    +0.000 A 
ATOM     14  C   UNL     1       4.524   0.961   2.753  0.00  0.00    +0.000 A 
ATOM     15  C   UNL     1       4.290   2.312   3.006  0.00  0.00    +0.000 A 
ATOM     16  C   UNL     1       3.912   3.160   1.974  0.00  0.00    +0.000 A 
ATOM     17  C   UNL     1       3.781   2.681   0.669  0.00  0.00    +0.000 A 
ATOM     18  C   UNL     1       3.431   3.566  -0.363  0.00  0.00    +0.000 A 
ATOM     19  C   UNL     1       3.303   3.123  -1.676  0.00  0.00    +0.000 A 
ATOM     20  C   UNL     1       3.522   1.782  -1.970  0.00  0.00    +0.000 A 
ATOM     21  C   UNL     1       3.873   0.887  -0.951  0.00  0.00    +0.000 A 
ATOM     22  C   UNL     1       4.018   1.303   0.391  0.00  0.00    +0.000 A 
ENDBRANCH  12  13
ENDBRANCH   1  12
TORSDOF 6
