REMARK  Name = Dutasteride
REMARK  6 active torsions:
REMARK  status: ('A' for Active; 'I' for Inactive)
REMARK    1  A    between atoms: C_2  and  C_26
REMARK    2  A    between atoms: C_18  and  C_19
REMARK    3  A    between atoms: C_24  and  C_25
REMARK    4  A    between atoms: N_28  and  C_29
REMARK    5  A    between atoms: C_31  and  C_39
REMARK    6  A    between atoms: C_34  and  C_35
REMARK                            x       y       z     vdW  Elec       q    Type
REMARK                         _______ _______ _______ _____ _____    ______ ____
ROOT
ATOM      1  C   UNL     1       3.012  -1.328  -0.130  0.00  0.00    +0.000 C 
ATOM      2  C   UNL     1       3.389  -0.155  -0.868  0.00  0.00    +0.000 C 
ATOM      3  C   UNL     1       4.504  -0.043   0.210  0.00  0.00    +0.000 C 
ATOM      4  C   UNL     1       5.562  -0.528  -0.635  0.00  0.00    +0.000 C 
ATOM      5  C   UNL     1       5.544   0.268  -2.039  0.00  0.00    +0.000 C 
ATOM      6  C   UNL     1       5.375   1.741  -1.745  0.00  0.00    +0.000 C 
ATOM      7  C   UNL     1       5.246   2.477  -3.040  0.00  0.00    +0.000 C 
ATOM      8  C   UNL     1       6.644   2.294  -3.749  0.00  0.00    +0.000 C 
ATOM      9  N   UNL     1       7.077   3.181  -4.792  0.00  0.00    +0.000 N 
ATOM     10  C   UNL     1       6.011   3.804  -5.297  0.00  0.00    +0.000 C 
ATOM     11  O   UNL     1       5.870   5.001  -5.194  0.00  0.00    +0.000 OA
ATOM     12  C   UNL     1       5.239   2.697  -6.005  0.00  0.00    +0.000 C 
ATOM     13  C   UNL     1       5.456   1.356  -5.588  0.00  0.00    +0.000 C 
ATOM     14  C   UNL     1       6.625   0.908  -4.379  0.00  0.00    +0.000 C 
ATOM     15  C   UNL     1       8.029   0.625  -5.015  0.00  0.00    +0.000 C 
ATOM     16  C   UNL     1       6.674   0.031  -3.011  0.00  0.00    +0.000 C 
ATOM     17  C   UNL     1       6.812  -1.456  -3.098  0.00  0.00    +0.000 C 
ATOM     18  C   UNL     1       6.508  -2.023  -1.706  0.00  0.00    +0.000 C 
ATOM     19  C   UNL     1       4.830  -1.972  -0.741  0.00  0.00    +0.000 C 
ATOM     20  C   UNL     1       5.387  -3.483  -0.444  0.00  0.00    +0.000 C 
ATOM     21  H   UNL     1       7.339   2.623  -5.606  0.00  0.00    +0.000 HD
ENDROOT
BRANCH   1  22
ATOM     22  C   UNL     1       1.916  -0.000   0.902  0.00  0.00    +0.000 C 
ATOM     23  O   UNL     1       1.992   1.219   0.690  0.00  0.00    +0.000 OA
ATOM     24  N   UNL     1       0.780  -0.305   1.829  0.00  0.00    +0.000 N 
ATOM     25  H   UNL     1       0.648  -1.261   2.099  0.00  0.00    +0.000 HD
BRANCH  24  26
ATOM     26  C   UNL     1      -0.177   0.637   2.733  0.00  0.00    +0.000 A 
ATOM     27  C   UNL     1      -0.272   0.329   4.126  0.00  0.00    +0.000 A 
ATOM     28  C   UNL     1      -1.195   0.939   5.080  0.00  0.00    +0.000 A 
ATOM     29  C   UNL     1      -2.045   1.965   4.688  0.00  0.00    +0.000 A 
ATOM     30  C   UNL     1      -2.074   2.259   3.338  0.00  0.00    +0.000 A 
ATOM     31  C   UNL     1      -1.177   1.602   2.365  0.00  0.00    +0.000 A 
BRANCH  31  32
ATOM     32  C   UNL     1      -1.460   2.026   0.957  0.00  0.00    +0.000 C 
ATOM     33  F   UNL     1      -2.784   1.893   0.626  0.00  0.00    +0.000 F 
ATOM     34  F   UNL     1      -1.183   3.346   0.771  0.00  0.00    +0.000 F 
ATOM     35  F   UNL     1      -0.783   1.323   0.025  0.00  0.00    +0.000 F 
ENDBRANCH  31  32
BRANCH  28  36
ATOM     36  C   UNL     1      -1.325   0.421   6.502  0.00  0.00    +0.000 C 
ATOM     37  F   UNL     1      -1.686  -0.893   6.523  0.00  0.00    +0.000 F 
ATOM     38  F   UNL     1      -0.171   0.515   7.208  0.00  0.00    +0.000 F 
ATOM     39  F   UNL     1      -2.274   1.065   7.246  0.00  0.00    +0.000 F 
ENDBRANCH  28  36
ENDBRANCH  24  26
ENDBRANCH   1  22
TORSDOF 4
