REMARK  Name = Duvelisib
REMARK  5 active torsions:
REMARK  status: ('A' for Active; 'I' for Inactive)
REMARK    1  A    between atoms: C_1  and  C_2
REMARK    2  A    between atoms: C_2  and  N_3
REMARK    3  A    between atoms: C_2  and  C_13
REMARK    4  A    between atoms: N_3  and  C_4
REMARK    5  A    between atoms: N_24  and  C_25
REMARK                            x       y       z     vdW  Elec       q    Type
REMARK                         _______ _______ _______ _____ _____    ______ ____
ROOT
ATOM      1  C   UNL     1       3.013  -0.837  -1.201  0.00  0.00    +0.000 A 
ATOM      2  C   UNL     1       2.950  -2.176  -1.192  0.00  0.00    +0.000 A 
ATOM      3  C   UNL     1       3.284  -2.955  -2.355  0.00  0.00    +0.000 A 
ATOM      4  C   UNL     1       3.041  -4.327  -2.302  0.00  0.00    +0.000 A 
ATOM      5  C   UNL     1       3.058  -5.048  -3.480  0.00  0.00    +0.000 A 
ATOM      6  C   UNL     1       3.593  -4.466  -4.626  0.00  0.00    +0.000 A 
ATOM      7  C   UNL     1       3.982  -3.123  -4.641  0.00  0.00    +0.000 A 
ATOM      8 CL   UNL     1       4.772  -2.574  -6.074  0.00  0.00    +0.000 Cl
ATOM      9  C   UNL     1       3.720  -2.328  -3.526  0.00  0.00    +0.000 A 
ATOM     10  C   UNL     1       3.807  -0.846  -3.534  0.00  0.00    +0.000 A 
ATOM     11  O   UNL     1       4.166  -0.260  -4.565  0.00  0.00    +0.000 OA
ATOM     12  N   UNL     1       3.458  -0.164  -2.351  0.00  0.00    +0.000 N 
ENDROOT
BRANCH  12  13
ATOM     13  C   UNL     1       3.626   1.245  -2.376  0.00  0.00    +0.000 A 
ATOM     14  C   UNL     1       2.843   2.032  -3.224  0.00  0.00    +0.000 A 
ATOM     15  C   UNL     1       2.841   3.412  -3.053  0.00  0.00    +0.000 A 
ATOM     16  C   UNL     1       3.799   4.009  -2.234  0.00  0.00    +0.000 A 
ATOM     17  C   UNL     1       4.685   3.224  -1.498  0.00  0.00    +0.000 A 
ATOM     18  C   UNL     1       4.549   1.842  -1.512  0.00  0.00    +0.000 A 
ENDBRANCH  12  13
BRANCH   1  20
ATOM     19  C   UNL     1       3.190  -0.788   1.269  0.00  0.00    +0.000 C 
ATOM     20  C   UNL     1       2.549  -0.083   0.054  0.00  0.00    +0.000 C 
BRANCH  20  21
ATOM     21  N   UNL     1       1.091  -0.162   0.118  0.00  0.00    +0.000 N 
ATOM     22  H   UNL     1       0.567  -0.263  -0.745  0.00  0.00    +0.000 HD
BRANCH  21  23
ATOM     23  C   UNL     1       0.402   0.548   1.095  0.00  0.00    +0.000 A 
ATOM     24  C   UNL     1       0.991   1.284   2.151  0.00  0.00    +0.000 A 
ATOM     25  N   UNL     1       2.301   1.628   2.443  0.00  0.00    +0.000 NA
ATOM     26  C   UNL     1       2.269   2.169   3.636  0.00  0.00    +0.000 A 
ATOM     27  N   UNL     1       0.984   2.333   4.066  0.00  0.00    +0.000 N 
ATOM     28  C   UNL     1       0.155   1.763   3.139  0.00  0.00    +0.000 A 
ATOM     29  N   UNL     1      -1.181   1.681   3.186  0.00  0.00    +0.000 NA
ATOM     30  C   UNL     1      -1.650   1.037   2.095  0.00  0.00    +0.000 A 
ATOM     31  N   UNL     1      -0.956   0.473   1.078  0.00  0.00    +0.000 NA
ATOM     32  H   UNL     1       0.690   2.798   4.910  0.00  0.00    +0.000 HD
ENDBRANCH  21  23
ENDBRANCH  20  21
ENDBRANCH   1  20
TORSDOF 4
