REMARK  Name = Dydrogesterone
REMARK  4 active torsions:
REMARK  status: ('A' for Active; 'I' for Inactive)
REMARK    1  A    between atoms: C_5  and  C_6
REMARK    2  A    between atoms: C_6  and  C_7
REMARK    3  A    between atoms: C_9  and  C_10
REMARK    4  A    between atoms: C_25  and  C_26
REMARK                            x       y       z     vdW  Elec       q    Type
REMARK                         _______ _______ _______ _____ _____    ______ ____
ROOT
ATOM      1  C   UNL     1       2.004  -0.146   0.077  0.00  0.00    +0.000 C 
ATOM      2  C   UNL     1       2.173   1.219   0.828  0.00  0.00    +0.000 C 
ATOM      3  C   UNL     1       3.193   1.821  -0.070  0.00  0.00    +0.000 C 
ATOM      4  C   UNL     1       2.490   1.511  -1.526  0.00  0.00    +0.000 C 
ATOM      5  C   UNL     1       2.635  -0.027  -1.369  0.00  0.00    +0.000 C 
ATOM      6  C   UNL     1       4.184  -0.162  -1.690  0.00  0.00    +0.000 C 
ATOM      7  C   UNL     1       2.018  -1.213  -2.152  0.00  0.00    +0.000 C 
ATOM      8  C   UNL     1       2.533  -2.585  -1.538  0.00  0.00    +0.000 C 
ATOM      9  C   UNL     1       2.183  -2.733  -0.042  0.00  0.00    +0.000 C 
ATOM     10  C   UNL     1       2.548  -1.399   0.771  0.00  0.00    +0.000 C 
ATOM     11  C   UNL     1       4.040  -1.407   1.009  0.00  0.00    +0.000 C 
ATOM     12  C   UNL     1       4.732  -2.526   1.245  0.00  0.00    +0.000 C 
ATOM     13  C   UNL     1       4.022  -3.728   1.547  0.00  0.00    +0.000 C 
ATOM     14  C   UNL     1       4.494  -4.655   2.402  0.00  0.00    +0.000 C 
ATOM     15  C   UNL     1       3.714  -5.916   2.371  0.00  0.00    +0.000 C 
ATOM     16  O   UNL     1       2.688  -6.243   3.022  0.00  0.00    +0.000 OA
ATOM     17  C   UNL     1       3.985  -6.641   1.167  0.00  0.00    +0.000 C 
ATOM     18  C   UNL     1       3.175  -5.558   0.159  0.00  0.00    +0.000 C 
ATOM     19  C   UNL     1       2.721  -4.022   0.825  0.00  0.00    +0.000 C 
ATOM     20  C   UNL     1       1.599  -3.986   1.933  0.00  0.00    +0.000 C 
ENDROOT
BRANCH   4  21
ATOM     21  C   UNL     1       1.013   1.936  -1.936  0.00  0.00    +0.000 C 
ATOM     22  C   UNL     1       0.478   3.338  -1.696  0.00  0.00    +0.000 C 
ATOM     23  O   UNL     1       0.296   1.173  -2.599  0.00  0.00    +0.000 OA
ENDBRANCH   4  21
TORSDOF 1
