REMARK  Name = Dyphylline
REMARK  7 active torsions:
REMARK  status: ('A' for Active; 'I' for Inactive)
REMARK    1  A    between atoms: C_1  and  N_2
REMARK    2  A    between atoms: N_5  and  C_6
REMARK    3  A    between atoms: C_6  and  C_7
REMARK    4  A    between atoms: C_7  and  O_8
REMARK    5  A    between atoms: C_7  and  C_9
REMARK    6  A    between atoms: C_9  and  O_10
REMARK    7  A    between atoms: N_15  and  C_16
REMARK                            x       y       z     vdW  Elec       q    Type
REMARK                         _______ _______ _______ _____ _____    ______ ____
ROOT
ATOM      1  C   UNL     1       0.942  -0.104   0.040  0.00  0.00    +0.000 C 
ATOM      2  N   UNL     1       2.389  -0.070   0.041  0.00  0.00    +0.000 N 
ATOM      3  C   UNL     1       3.139  -1.216   0.049  0.00  0.00    +0.000 A 
ATOM      4  C   UNL     1       4.503  -1.184   0.050  0.00  0.00    +0.000 A 
ATOM      5  N   UNL     1       4.887  -2.499   0.059  0.00  0.00    +0.000 N 
ATOM      6  C   UNL     1       3.731  -3.241   0.062  0.00  0.00    +0.000 A 
ATOM      7  N   UNL     1       2.657  -2.483   0.060  0.00  0.00    +0.000 NA
ATOM      8  C   UNL     1       5.248   0.027   0.043  0.00  0.00    +0.000 A 
ATOM      9  O   UNL     1       6.478   0.047   0.038  0.00  0.00    +0.000 OA
ATOM     10  N   UNL     1       4.437   1.165   0.046  0.00  0.00    +0.000 N 
ATOM     11  C   UNL     1       5.071   2.468   0.057  0.00  0.00    +0.000 C 
ATOM     12  C   UNL     1       3.029   1.166   0.040  0.00  0.00    +0.000 A 
ATOM     13  O   UNL     1       2.387   2.221   0.036  0.00  0.00    +0.000 OA
ENDROOT
BRANCH   5  14
ATOM     14  C   UNL     1       6.255  -2.995   0.042  0.00  0.00    +0.000 C 
BRANCH  14  15
ATOM     15  C   UNL     1       6.361  -4.525   0.030  0.00  0.00    +0.000 C 
BRANCH  15  16
ATOM     16  O   UNL     1       5.718  -5.058  -1.136  0.00  0.00    +0.000 OA
ATOM     17  H   UNL     1       6.174  -4.725  -1.929  0.00  0.00    +0.000 HD
ENDBRANCH  15  16
BRANCH  15  18
ATOM     18  C   UNL     1       7.817  -4.992   0.058  0.00  0.00    +0.000 C 
BRANCH  18  19
ATOM     19  O   UNL     1       7.895  -6.415   0.076  0.00  0.00    +0.000 OA
ATOM     20  H   UNL     1       7.324  -6.743   0.792  0.00  0.00    +0.000 HD
ENDBRANCH  18  19
ENDBRANCH  15  18
ENDBRANCH  14  15
ENDBRANCH   5  14
TORSDOF 5
