REMARK  Name = Ebastine
REMARK  13 active torsions:
REMARK  status: ('A' for Active; 'I' for Inactive)
REMARK    1  A    between atoms: C_1  and  C_2
REMARK    2  A    between atoms: C_2  and  C_3
REMARK    3  A    between atoms: C_2  and  C_4
REMARK    4  A    between atoms: C_2  and  C_5
REMARK    5  A    between atoms: C_8  and  C_11
REMARK    6  A    between atoms: C_11  and  C_13
REMARK    7  A    between atoms: C_13  and  C_14
REMARK    8  A    between atoms: C_14  and  C_15
REMARK    9  A    between atoms: C_15  and  N_16
REMARK   10  A    between atoms: C_19  and  O_22
REMARK   11  A    between atoms: O_22  and  C_23
REMARK   12  A    between atoms: C_23  and  C_24
REMARK   13  A    between atoms: C_23  and  C_30
REMARK                            x       y       z     vdW  Elec       q    Type
REMARK                         _______ _______ _______ _____ _____    ______ ____
ROOT
ATOM      1  N   UNL     1       4.490   5.795   8.553  0.00  0.00    +0.000 NA
ATOM      2  C   UNL     1       5.476   4.892   9.110  0.00  0.00    +0.000 C 
ATOM      3  C   UNL     1       5.856   5.142  10.579  0.00  0.00    +0.000 C 
ATOM      4  C   UNL     1       6.550   6.484  10.708  0.00  0.00    +0.000 C 
ATOM      5  C   UNL     1       5.489   7.465  10.146  0.00  0.00    +0.000 C 
ATOM      6  C   UNL     1       5.075   7.155   8.685  0.00  0.00    +0.000 C 
ENDROOT
BRANCH   1   7
ATOM      7  C   UNL     1       4.302   5.427   7.117  0.00  0.00    +0.000 C 
BRANCH   7   8
ATOM      8  C   UNL     1       4.310   3.902   6.848  0.00  0.00    +0.000 C 
BRANCH   8   9
ATOM      9  C   UNL     1       3.930   3.566   5.428  0.00  0.00    +0.000 C 
BRANCH   9  10
ATOM     10  C   UNL     1       3.905   2.071   5.227  0.00  0.00    +0.000 C 
ATOM     11  O   UNL     1       4.189   1.256   6.130  0.00  0.00    +0.000 OA
BRANCH  10  15
ATOM     12  C   UNL     1       3.073   0.572   1.311  0.00  0.00    +0.000 A 
ATOM     13  C   UNL     1       3.412  -0.294   2.365  0.00  0.00    +0.000 A 
ATOM     14  C   UNL     1       3.608   0.193   3.652  0.00  0.00    +0.000 A 
ATOM     15  C   UNL     1       3.574   1.565   3.886  0.00  0.00    +0.000 A 
ATOM     16  C   UNL     1       3.281   2.446   2.844  0.00  0.00    +0.000 A 
ATOM     17  C   UNL     1       3.029   1.950   1.575  0.00  0.00    +0.000 A 
BRANCH  12  19
ATOM     18  C   UNL     1       1.074   0.051  -0.043  0.00  0.00    +0.000 C 
ATOM     19  C   UNL     1       2.617   0.045  -0.051  0.00  0.00    +0.000 C 
ATOM     20  C   UNL     1       3.103  -1.391  -0.322  0.00  0.00    +0.000 C 
ATOM     21  C   UNL     1       3.118   0.938  -1.205  0.00  0.00    +0.000 C 
ENDBRANCH  12  19
ENDBRANCH  10  15
ENDBRANCH   9  10
ENDBRANCH   8   9
ENDBRANCH   7   8
ENDBRANCH   1   7
BRANCH   4  22
ATOM     22  O   UNL     1       7.809   6.557   9.977  0.00  0.00    +0.000 OA
BRANCH  22  23
ATOM     23  C   UNL     1       8.990   5.803  10.467  0.00  0.00    +0.000 C 
BRANCH  23  24
ATOM     24  C   UNL     1       8.898   4.266  10.334  0.00  0.00    +0.000 A 
ATOM     25  C   UNL     1       8.015   3.764   9.422  0.00  0.00    +0.000 A 
ATOM     26  C   UNL     1       7.450   2.511   9.565  0.00  0.00    +0.000 A 
ATOM     27  C   UNL     1       8.280   1.536  10.023  0.00  0.00    +0.000 A 
ATOM     28  C   UNL     1       9.508   1.935  10.534  0.00  0.00    +0.000 A 
ATOM     29  C   UNL     1       9.745   3.291  10.838  0.00  0.00    +0.000 A 
ENDBRANCH  23  24
BRANCH  23  30
ATOM     30  C   UNL     1      10.238   6.325   9.729  0.00  0.00    +0.000 A 
ATOM     31  C   UNL     1      11.222   5.430   9.254  0.00  0.00    +0.000 A 
ATOM     32  C   UNL     1      12.478   5.838   8.846  0.00  0.00    +0.000 A 
ATOM     33  C   UNL     1      12.721   7.188   8.705  0.00  0.00    +0.000 A 
ATOM     34  C   UNL     1      11.728   8.111   9.045  0.00  0.00    +0.000 A 
ATOM     35  C   UNL     1      10.504   7.690   9.586  0.00  0.00    +0.000 A 
ENDBRANCH  23  30
ENDBRANCH  22  23
ENDBRANCH   4  22
TORSDOF 10
