REMARK  Name = Ecamsule
REMARK  12 active torsions:
REMARK  status: ('A' for Active; 'I' for Inactive)
REMARK    1  A    between atoms: C_1  and  C_2
REMARK    2  A    between atoms: C_2  and  C_3
REMARK    3  A    between atoms: C_7  and  C_8
REMARK    4  A    between atoms: C_8  and  S_9
REMARK    5  A    between atoms: S_9  and  O_10
REMARK    6  A    between atoms: C_16  and  C_17
REMARK    7  A    between atoms: C_20  and  C_21
REMARK    8  A    between atoms: C_26  and  C_27
REMARK    9  A    between atoms: C_27  and  S_28
REMARK   10  A    between atoms: S_28  and  O_29
REMARK   11  A    between atoms: C_34  and  C_35
REMARK   12  A    between atoms: C_34  and  C_36
REMARK                            x       y       z     vdW  Elec       q    Type
REMARK                         _______ _______ _______ _____ _____    ______ ____
ROOT
ATOM      1  C   UNL     1       7.078  -1.106  -0.794  0.00  0.00    +0.000 A 
ATOM      2  C   UNL     1       8.017  -1.433  -1.778  0.00  0.00    +0.000 A 
ATOM      3  C   UNL     1       9.360  -1.029  -1.655  0.00  0.00    +0.000 A 
ATOM      4  C   UNL     1       9.763  -0.239  -0.577  0.00  0.00    +0.000 A 
ATOM      5  C   UNL     1       8.812  -0.009   0.418  0.00  0.00    +0.000 A 
ATOM      6  C   UNL     1       7.490  -0.382   0.307  0.00  0.00    +0.000 A 
ENDROOT
BRANCH   1  17
ATOM      7  C   UNL     1       1.005   0.027   0.083  0.00  0.00    +0.000 C 
ATOM      8  C   UNL     1       2.545   0.036   0.078  0.00  0.00    +0.000 C 
ATOM      9  C   UNL     1       2.985   0.033   1.555  0.00  0.00    +0.000 C 
ATOM     10  C   UNL     1       3.161  -1.108  -0.780  0.00  0.00    +0.000 C 
ATOM     11  C   UNL     1       2.663  -0.766  -2.200  0.00  0.00    +0.000 C 
ATOM     12  C   UNL     1       2.665   0.786  -2.217  0.00  0.00    +0.000 C 
ATOM     13  C   UNL     1       3.164   1.170  -0.800  0.00  0.00    +0.000 C 
ATOM     14  C   UNL     1       4.610   0.727  -0.779  0.00  0.00    +0.000 C 
ATOM     15  O   UNL     1       5.577   1.464  -0.822  0.00  0.00    +0.000 OA
ATOM     16  C   UNL     1       4.634  -0.768  -0.787  0.00  0.00    +0.000 C 
ATOM     17  C   UNL     1       5.697  -1.577  -0.825  0.00  0.00    +0.000 C 
BRANCH  13  18
ATOM     18  C   UNL     1       2.932   2.600  -0.348  0.00  0.00    +0.000 C 
BRANCH  18  19
ATOM     19  S   UNL     1       3.549   3.896  -1.444  0.00  0.00    +0.000 S 
ATOM     20  O   UNL     1       3.165   3.588  -2.802  0.00  0.00    +0.000 OA
ATOM     21  O   UNL     1       3.223   5.171  -0.842  0.00  0.00    +0.000 OA
BRANCH  19  22
ATOM     22  O   UNL     1       5.147   3.731  -1.330  0.00  0.00    +0.000 OA
ATOM     23  H   UNL     1       5.473   2.821  -1.544  0.00  0.00    +0.000 HD
ENDBRANCH  19  22
ENDBRANCH  18  19
ENDBRANCH  13  18
ENDBRANCH   1  17
BRANCH   4  24
ATOM     24  C   UNL     1      11.122   0.330  -0.503  0.00  0.00    +0.000 C 
ATOM     25  C   UNL     1      11.521   1.219   0.419  0.00  0.00    +0.000 C 
ATOM     26  C   UNL     1      10.812   1.910   1.566  0.00  0.00    +0.000 C 
ATOM     27  C   UNL     1      11.329   1.224   2.838  0.00  0.00    +0.000 C 
ATOM     28  C   UNL     1      12.744   1.814   2.968  0.00  0.00    +0.000 C 
ATOM     29  C   UNL     1      12.882   2.757   1.736  0.00  0.00    +0.000 C 
ATOM     30  C   UNL     1      12.888   1.834   0.509  0.00  0.00    +0.000 C 
ATOM     31  O   UNL     1      13.776   1.648  -0.301  0.00  0.00    +0.000 OA
ATOM     32  C   UNL     1      11.438   3.307   1.584  0.00  0.00    +0.000 C 
ATOM     33  C   UNL     1      10.885   4.154   2.743  0.00  0.00    +0.000 C 
ATOM     34  C   UNL     1      11.144   4.087   0.283  0.00  0.00    +0.000 C 
BRANCH  29  35
ATOM     35  C   UNL     1      13.940   3.833   1.818  0.00  0.00    +0.000 C 
BRANCH  35  36
ATOM     36  S   UNL     1      15.630   3.267   1.983  0.00  0.00    +0.000 S 
ATOM     37  O   UNL     1      15.961   2.252   1.008  0.00  0.00    +0.000 OA
ATOM     38  O   UNL     1      16.476   4.409   2.209  0.00  0.00    +0.000 OA
BRANCH  36  39
ATOM     39  O   UNL     1      15.470   2.488   3.389  0.00  0.00    +0.000 OA
ATOM     40  H   UNL     1      15.322   1.535   3.212  0.00  0.00    +0.000 HD
ENDBRANCH  36  39
ENDBRANCH  35  36
ENDBRANCH  29  35
ENDBRANCH   4  24
TORSDOF 8
