REMARK  Name = Echothiophate
REMARK  13 active torsions:
REMARK  status: ('A' for Active; 'I' for Inactive)
REMARK    1  A    between atoms: C_1  and  C_2
REMARK    2  A    between atoms: C_2  and  O_3
REMARK    3  A    between atoms: O_3  and  P_4
REMARK    4  A    between atoms: P_4  and  O_6
REMARK    5  A    between atoms: P_4  and  S_9
REMARK    6  A    between atoms: O_6  and  C_7
REMARK    7  A    between atoms: C_7  and  C_8
REMARK    8  A    between atoms: S_9  and  C_10
REMARK    9  A    between atoms: C_10  and  C_11
REMARK   10  A    between atoms: C_11  and  N_12
REMARK   11  A    between atoms: N_12  and  C_13
REMARK   12  A    between atoms: N_12  and  C_14
REMARK   13  A    between atoms: N_12  and  C_15
REMARK                            x       y       z     vdW  Elec       q    Type
REMARK                         _______ _______ _______ _____ _____    ______ ____
ROOT
ATOM      1  P   UNL     1       4.674   0.953  -1.013  0.00  0.00    +0.000 P 
ATOM      2  O   UNL     1       4.743   0.775  -2.527  0.00  0.00    +0.000 OA
ENDROOT
BRANCH   1   3
ATOM      3  O   UNL     1       2.944   0.953  -1.013  0.00  0.00    +0.000 OA
BRANCH   3   5
ATOM      4  C   UNL     1       0.931   0.086  -0.015  0.00  0.00    +0.000 C 
ATOM      5  C   UNL     1       2.442   0.060  -0.020  0.00  0.00    +0.000 C 
ENDBRANCH   3   5
ENDBRANCH   1   3
BRANCH   1   6
ATOM      6  O   UNL     1       4.614   2.586  -0.628  0.00  0.00    +0.000 OA
BRANCH   6   7
ATOM      7  C   UNL     1       3.354   3.222  -0.385  0.00  0.00    +0.000 C 
ATOM      8  C   UNL     1       3.464   4.653   0.080  0.00  0.00    +0.000 C 
ENDBRANCH   6   7
ENDBRANCH   1   6
BRANCH   1   9
ATOM      9  S   UNL     1       6.794   0.953  -1.013  0.00  0.00    +0.000 S 
BRANCH   9  10
ATOM     10  C   UNL     1       7.311  -0.742  -1.034  0.00  0.00    +0.000 C 
BRANCH  10  11
ATOM     11  C   UNL     1       8.844  -0.773  -1.026  0.00  0.00    +0.000 C 
BRANCH  11  12
ATOM     12  N   UNL     1       9.401  -2.212  -1.019  0.00  0.00    +0.000 N 
ATOM     13  C   UNL     1       8.960  -2.953   0.236  0.00  0.00    +0.000 C 
ATOM     14  C   UNL     1       8.958  -2.955  -2.273  0.00  0.00    +0.000 C 
ATOM     15  C   UNL     1      10.930  -2.138  -1.018  0.00  0.00    +0.000 C 
ENDBRANCH  11  12
ENDBRANCH  10  11
ENDBRANCH   9  10
ENDBRANCH   1   9
TORSDOF 8
