REMARK  Name = Econazole
REMARK  6 active torsions:
REMARK  status: ('A' for Active; 'I' for Inactive)
REMARK    1  A    between atoms: C_5  and  C_6
REMARK    2  A    between atoms: C_6  and  O_7
REMARK    3  A    between atoms: O_7  and  C_8
REMARK    4  A    between atoms: C_8  and  C_9
REMARK    5  A    between atoms: C_8  and  C_15
REMARK    6  A    between atoms: C_9  and  N_10
REMARK                            x       y       z     vdW  Elec       q    Type
REMARK                         _______ _______ _______ _____ _____    ______ ____
ROOT
ATOM      1  C   UNL     1       5.850   1.305   0.086  0.00  0.00    +0.000 C 
ENDROOT
BRANCH   1   2
ATOM      2  C   UNL     1       6.379   2.761   0.098  0.00  0.00    +0.000 A 
ATOM      3  C   UNL     1       7.752   3.072   0.094  0.00  0.00    +0.000 A 
ATOM      4 CL   UNL     1       8.979   1.859   0.205  0.00  0.00    +0.000 Cl
ATOM      5  C   UNL     1       8.198   4.400   0.049  0.00  0.00    +0.000 A 
ATOM      6  C   UNL     1       7.285   5.449   0.075  0.00  0.00    +0.000 A 
ATOM      7 CL   UNL     1       7.844   7.075   0.055  0.00  0.00    +0.000 Cl
ATOM      8  C   UNL     1       5.925   5.185   0.137  0.00  0.00    +0.000 A 
ATOM      9  C   UNL     1       5.479   3.858   0.136  0.00  0.00    +0.000 A 
ENDBRANCH   1   2
BRANCH   1  10
ATOM     10  O   UNL     1       4.424   1.418   0.294  0.00  0.00    +0.000 OA
BRANCH  10  11
ATOM     11  C   UNL     1       3.790   0.188   0.585  0.00  0.00    +0.000 C 
BRANCH  11  16
ATOM     12 CL   UNL     1      -2.156  -0.060  -0.078  0.00  0.00    +0.000 Cl
ATOM     13  C   UNL     1      -0.440   0.010  -0.035  0.00  0.00    +0.000 A 
ATOM     14  C   UNL     1       0.300  -1.168   0.005  0.00  0.00    +0.000 A 
ATOM     15  C   UNL     1       1.681  -1.096   0.165  0.00  0.00    +0.000 A 
ATOM     16  C   UNL     1       2.318   0.154   0.303  0.00  0.00    +0.000 A 
ATOM     17  C   UNL     1       1.579   1.322   0.131  0.00  0.00    +0.000 A 
ATOM     18  C   UNL     1       0.197   1.251  -0.016  0.00  0.00    +0.000 A 
ENDBRANCH  11  16
ENDBRANCH  10  11
ENDBRANCH   1  10
BRANCH   1  19
ATOM     19  C   UNL     1       6.252   0.554  -1.256  0.00  0.00    +0.000 C 
BRANCH  19  20
ATOM     20  N   UNL     1       5.933  -0.866  -1.423  0.00  0.00    +0.000 N 
ATOM     21  C   UNL     1       6.755  -1.932  -1.168  0.00  0.00    +0.000 A 
ATOM     22  C   UNL     1       5.928  -3.036  -1.205  0.00  0.00    +0.000 A 
ATOM     23  N   UNL     1       4.672  -2.687  -1.606  0.00  0.00    +0.000 NA
ATOM     24  C   UNL     1       4.757  -1.398  -1.898  0.00  0.00    +0.000 A 
ENDBRANCH  19  20
ENDBRANCH   1  19
TORSDOF 6
