REMARK  Name = Edaravone
REMARK  2 active torsions:
REMARK  status: ('A' for Active; 'I' for Inactive)
REMARK    1  A    between atoms: C_1  and  C_2
REMARK    2  A    between atoms: N_4  and  C_8
REMARK                            x       y       z     vdW  Elec       q    Type
REMARK                         _______ _______ _______ _____ _____    ______ ____
ROOT
ATOM      1  C   UNL     1      -2.584  -0.558  -0.078  0.00  0.00    +0.000 C 
ATOM      2  C   UNL     1      -1.162  -0.121   0.050  0.00  0.00    +0.000 C 
ATOM      3  N   UNL     1      -0.786   1.120   0.139  0.00  0.00    +0.000 NA
ATOM      4  N   UNL     1       0.595   1.091   0.130  0.00  0.00    +0.000 N 
ATOM      5  C   UNL     1       1.152  -0.185   0.003  0.00  0.00    +0.000 C 
ATOM      6  O   UNL     1       2.313  -0.530  -0.099  0.00  0.00    +0.000 OA
ATOM      7  C   UNL     1      -0.032  -1.103   0.129  0.00  0.00    +0.000 C 
ENDROOT
BRANCH   4   8
ATOM      8  C   UNL     1       1.297   2.306   0.139  0.00  0.00    +0.000 A 
ATOM      9  C   UNL     1       1.054   3.234   1.157  0.00  0.00    +0.000 A 
ATOM     10  C   UNL     1       1.704   4.470   1.157  0.00  0.00    +0.000 A 
ATOM     11  C   UNL     1       2.626   4.772   0.156  0.00  0.00    +0.000 A 
ATOM     12  C   UNL     1       2.885   3.845  -0.853  0.00  0.00    +0.000 A 
ATOM     13  C   UNL     1       2.234   2.607  -0.854  0.00  0.00    +0.000 A 
ENDBRANCH   4   8
TORSDOF 1
