REMARK  Name = Edetate disodium anhydrous
REMARK  13 active torsions:
REMARK  status: ('A' for Active; 'I' for Inactive)
REMARK    1  A    between atoms: O_3  and  C_4
REMARK    2  A    between atoms: C_4  and  C_6
REMARK    3  A    between atoms: C_6  and  N_7
REMARK    4  A    between atoms: N_7  and  C_8
REMARK    5  A    between atoms: N_7  and  C_19
REMARK    6  A    between atoms: C_8  and  C_9
REMARK    7  A    between atoms: C_9  and  N_10
REMARK    8  A    between atoms: N_10  and  C_11
REMARK    9  A    between atoms: N_10  and  C_15
REMARK   10  A    between atoms: C_11  and  C_12
REMARK   11  A    between atoms: C_12  and  O_13
REMARK   12  A    between atoms: C_15  and  C_16
REMARK   13  A    between atoms: C_19  and  C_20
REMARK                            x       y       z     vdW  Elec       q    Type
REMARK                         _______ _______ _______ _____ _____    ______ ____
ROOT
ATOM      1 NA   UNL     1       0.057   0.645  -1.682  0.00  0.00    +0.000 Na
ENDROOT
TORSDOF 0
REMARK  Name = Edetate disodium anhydrous
REMARK  13 active torsions:
REMARK  status: ('A' for Active; 'I' for Inactive)
REMARK    1  A    between atoms: O_3  and  C_4
REMARK    2  A    between atoms: C_4  and  C_6
REMARK    3  A    between atoms: C_6  and  N_7
REMARK    4  A    between atoms: N_7  and  C_8
REMARK    5  A    between atoms: N_7  and  C_19
REMARK    6  A    between atoms: C_8  and  C_9
REMARK    7  A    between atoms: C_9  and  N_10
REMARK    8  A    between atoms: N_10  and  C_11
REMARK    9  A    between atoms: N_10  and  C_15
REMARK   10  A    between atoms: C_11  and  C_12
REMARK   11  A    between atoms: C_12  and  O_13
REMARK   12  A    between atoms: C_15  and  C_16
REMARK   13  A    between atoms: C_19  and  C_20
REMARK                            x       y       z     vdW  Elec       q    Type
REMARK                         _______ _______ _______ _____ _____    ______ ____
ROOT
ATOM      1 NA   UNL     2       1.643   1.696   1.638  0.00  0.00    +0.000 Na
ENDROOT
TORSDOF 0
REMARK  Name = Edetate disodium anhydrous
REMARK  13 active torsions:
REMARK  status: ('A' for Active; 'I' for Inactive)
REMARK    1  A    between atoms: O_3  and  C_4
REMARK    2  A    between atoms: C_4  and  C_6
REMARK    3  A    between atoms: C_6  and  N_7
REMARK    4  A    between atoms: N_7  and  C_8
REMARK    5  A    between atoms: N_7  and  C_19
REMARK    6  A    between atoms: C_8  and  C_9
REMARK    7  A    between atoms: C_9  and  N_10
REMARK    8  A    between atoms: N_10  and  C_11
REMARK    9  A    between atoms: N_10  and  C_15
REMARK   10  A    between atoms: C_11  and  C_12
REMARK   11  A    between atoms: C_12  and  O_13
REMARK   12  A    between atoms: C_15  and  C_16
REMARK   13  A    between atoms: C_19  and  C_20
REMARK                            x       y       z     vdW  Elec       q    Type
REMARK                         _______ _______ _______ _____ _____    ______ ____
ROOT
ATOM      1  C   UNL     3       4.883   0.509   0.950  0.00  0.00    +0.000 C 
ENDROOT
BRANCH   1   2
ATOM      2  N   UNL     3       4.561  -0.902   0.743  0.00  0.00    +0.000 NA
BRANCH   2   3
ATOM      3  C   UNL     3       3.159  -1.210   0.953  0.00  0.00    +0.000 C 
BRANCH   3   4
ATOM      4  C   UNL     3       2.244  -0.683  -0.189  0.00  0.00    +0.000 C 
ATOM      5  O   UNL     3       2.456  -0.006  -1.157  0.00  0.00    +0.000 OA
BRANCH   4   6
ATOM      6  O   UNL     3       0.915  -0.779   0.157  0.00  0.00    +0.000 OA
ATOM      7  H   UNL     3       0.790  -1.476   0.841  0.00  0.00    +0.000 HD
ENDBRANCH   4   6
ENDBRANCH   3   4
ENDBRANCH   2   3
BRANCH   2   8
ATOM      8  C   UNL     3       5.429  -1.644   1.756  0.00  0.00    +0.000 C 
BRANCH   8   9
ATOM      9  C   UNL     3       6.996  -1.526   1.550  0.00  0.00    +0.000 C 
ATOM     10  O   UNL     3       7.403  -0.942   0.510  0.00  0.00    +0.000 OA
ATOM     11  O   UNL     3       7.649  -2.078   2.484  0.00  0.00    +0.000 OA
ENDBRANCH   8   9
ENDBRANCH   2   8
ENDBRANCH   1   2
BRANCH   1  12
ATOM     12  C   UNL     3       4.330   1.566   0.005  0.00  0.00    +0.000 C 
BRANCH  12  13
ATOM     13  N   UNL     3       4.739   2.948   0.303  0.00  0.00    +0.000 NA
BRANCH  13  14
ATOM     14  C   UNL     3       6.229   3.118   0.007  0.00  0.00    +0.000 C 
BRANCH  14  15
ATOM     15  C   UNL     3       7.151   2.535   1.087  0.00  0.00    +0.000 C 
ATOM     16  O   UNL     3       8.353   2.362   0.950  0.00  0.00    +0.000 OA
BRANCH  15  17
ATOM     17  O   UNL     3       6.497   2.316   2.263  0.00  0.00    +0.000 OA
ATOM     18  H   UNL     3       5.586   2.628   2.095  0.00  0.00    +0.000 HD
ENDBRANCH  15  17
ENDBRANCH  14  15
ENDBRANCH  13  14
BRANCH  13  19
ATOM     19  C   UNL     3       4.003   3.805  -0.716  0.00  0.00    +0.000 C 
BRANCH  19  20
ATOM     20  C   UNL     3       4.214   5.339  -0.575  0.00  0.00    +0.000 C 
ATOM     21  O   UNL     3       4.870   5.734   0.424  0.00  0.00    +0.000 OA
ATOM     22  O   UNL     3       3.580   5.997  -1.450  0.00  0.00    +0.000 OA
ENDBRANCH  19  20
ENDBRANCH  13  19
ENDBRANCH  12  13
ENDBRANCH   1  12
TORSDOF 13
