REMARK  Name = Edetic acid
REMARK  15 active torsions:
REMARK  status: ('A' for Active; 'I' for Inactive)
REMARK    1  A    between atoms: O_1  and  C_2
REMARK    2  A    between atoms: C_2  and  C_4
REMARK    3  A    between atoms: C_4  and  N_5
REMARK    4  A    between atoms: N_5  and  C_6
REMARK    5  A    between atoms: N_5  and  C_17
REMARK    6  A    between atoms: C_6  and  C_7
REMARK    7  A    between atoms: C_7  and  N_8
REMARK    8  A    between atoms: N_8  and  C_9
REMARK    9  A    between atoms: N_8  and  C_13
REMARK   10  A    between atoms: C_9  and  C_10
REMARK   11  A    between atoms: C_10  and  O_11
REMARK   12  A    between atoms: C_13  and  C_14
REMARK   13  A    between atoms: C_14  and  O_15
REMARK   14  A    between atoms: C_17  and  C_18
REMARK   15  A    between atoms: C_18  and  O_19
REMARK                            x       y       z     vdW  Elec       q    Type
REMARK                         _______ _______ _______ _____ _____    ______ ____
ROOT
ATOM      1  C   UNL     1       4.725   0.744   0.763  0.00  0.00    +0.000 C 
ENDROOT
BRANCH   1   2
ATOM      2  N   UNL     1       4.481  -0.698   0.720  0.00  0.00    +0.000 NA
BRANCH   2   3
ATOM      3  C   UNL     1       3.009  -0.905   0.962  0.00  0.00    +0.000 C 
BRANCH   3   4
ATOM      4  C   UNL     1       2.160  -0.446  -0.253  0.00  0.00    +0.000 C 
ATOM      5  O   UNL     1       2.593  -0.258  -1.383  0.00  0.00    +0.000 OA
BRANCH   4   6
ATOM      6  O   UNL     1       0.864  -0.180   0.023  0.00  0.00    +0.000 OA
ATOM      7  H   UNL     1       0.531  -0.494   0.881  0.00  0.00    +0.000 HD
ENDBRANCH   4   6
ENDBRANCH   3   4
ENDBRANCH   2   3
BRANCH   2   8
ATOM      8  C   UNL     1       5.304  -1.302   1.835  0.00  0.00    +0.000 C 
BRANCH   8   9
ATOM      9  C   UNL     1       6.848  -1.224   1.692  0.00  0.00    +0.000 C 
ATOM     10  O   UNL     1       7.591  -1.594   2.596  0.00  0.00    +0.000 OA
BRANCH   9  11
ATOM     11  O   UNL     1       7.364  -0.755   0.537  0.00  0.00    +0.000 OA
ATOM     12  H   UNL     1       6.713  -0.551  -0.158  0.00  0.00    +0.000 HD
ENDBRANCH   9  11
ENDBRANCH   8   9
ENDBRANCH   2   8
ENDBRANCH   1   2
BRANCH   1  13
ATOM     13  C   UNL     1       4.179   1.671  -0.323  0.00  0.00    +0.000 C 
BRANCH  13  14
ATOM     14  N   UNL     1       4.693   3.079  -0.293  0.00  0.00    +0.000 NA
BRANCH  14  15
ATOM     15  C   UNL     1       6.160   3.074  -0.634  0.00  0.00    +0.000 C 
BRANCH  15  16
ATOM     16  C   UNL     1       7.061   2.684   0.549  0.00  0.00    +0.000 C 
ATOM     17  O   UNL     1       8.239   2.442   0.434  0.00  0.00    +0.000 OA
BRANCH  16  18
ATOM     18  O   UNL     1       6.420   2.649   1.752  0.00  0.00    +0.000 OA
ATOM     19  H   UNL     1       5.466   2.840   1.644  0.00  0.00    +0.000 HD
ENDBRANCH  16  18
ENDBRANCH  15  16
ENDBRANCH  14  15
BRANCH  14  20
ATOM     20  C   UNL     1       3.912   3.712  -1.435  0.00  0.00    +0.000 C 
BRANCH  20  21
ATOM     21  C   UNL     1       4.125   5.208  -1.590  0.00  0.00    +0.000 C 
ATOM     22  O   UNL     1       3.638   5.855  -2.505  0.00  0.00    +0.000 OA
BRANCH  21  23
ATOM     23  O   UNL     1       4.872   5.783  -0.622  0.00  0.00    +0.000 OA
ATOM     24  H   UNL     1       5.101   5.137   0.074  0.00  0.00    +0.000 HD
ENDBRANCH  21  23
ENDBRANCH  20  21
ENDBRANCH  14  20
ENDBRANCH  13  14
ENDBRANCH   1  13
TORSDOF 15
