REMARK  Name = Edetate calcium disodium anhydrous
REMARK  11 active torsions:
REMARK  status: ('A' for Active; 'I' for Inactive)
REMARK    1  A    between atoms: C_5  and  C_7
REMARK    2  A    between atoms: C_7  and  N_8
REMARK    3  A    between atoms: N_8  and  C_9
REMARK    4  A    between atoms: N_8  and  C_20
REMARK    5  A    between atoms: C_9  and  C_10
REMARK    6  A    between atoms: C_10  and  N_11
REMARK    7  A    between atoms: N_11  and  C_12
REMARK    8  A    between atoms: N_11  and  C_16
REMARK    9  A    between atoms: C_12  and  C_13
REMARK   10  A    between atoms: C_16  and  C_17
REMARK   11  A    between atoms: C_20  and  C_21
REMARK                            x       y       z     vdW  Elec       q    Type
REMARK                         _______ _______ _______ _____ _____    ______ ____
ROOT
ATOM      1 NA   UNL     1       0.786  -1.015   2.555  0.00  0.00    +0.000 Na
ENDROOT
TORSDOF 0
REMARK  Name = Edetate calcium disodium anhydrous
REMARK  11 active torsions:
REMARK  status: ('A' for Active; 'I' for Inactive)
REMARK    1  A    between atoms: C_5  and  C_7
REMARK    2  A    between atoms: C_7  and  N_8
REMARK    3  A    between atoms: N_8  and  C_9
REMARK    4  A    between atoms: N_8  and  C_20
REMARK    5  A    between atoms: C_9  and  C_10
REMARK    6  A    between atoms: C_10  and  N_11
REMARK    7  A    between atoms: N_11  and  C_12
REMARK    8  A    between atoms: N_11  and  C_16
REMARK    9  A    between atoms: C_12  and  C_13
REMARK   10  A    between atoms: C_16  and  C_17
REMARK   11  A    between atoms: C_20  and  C_21
REMARK                            x       y       z     vdW  Elec       q    Type
REMARK                         _______ _______ _______ _____ _____    ______ ____
ROOT
ATOM      1 NA   UNL     2       0.964  -1.521  -2.131  0.00  0.00    +0.000 Na
ENDROOT
TORSDOF 0
REMARK  Name = Edetate calcium disodium anhydrous
REMARK  11 active torsions:
REMARK  status: ('A' for Active; 'I' for Inactive)
REMARK    1  A    between atoms: C_5  and  C_7
REMARK    2  A    between atoms: C_7  and  N_8
REMARK    3  A    between atoms: N_8  and  C_9
REMARK    4  A    between atoms: N_8  and  C_20
REMARK    5  A    between atoms: C_9  and  C_10
REMARK    6  A    between atoms: C_10  and  N_11
REMARK    7  A    between atoms: N_11  and  C_12
REMARK    8  A    between atoms: N_11  and  C_16
REMARK    9  A    between atoms: C_12  and  C_13
REMARK   10  A    between atoms: C_16  and  C_17
REMARK   11  A    between atoms: C_20  and  C_21
REMARK                            x       y       z     vdW  Elec       q    Type
REMARK                         _______ _______ _______ _____ _____    ______ ____
ROOT
ATOM      1 CA   UNL     3       1.642   2.640  -0.583  0.00  0.00    +0.000 Ca
ENDROOT
TORSDOF 0
REMARK  Name = Edetate calcium disodium anhydrous
REMARK  11 active torsions:
REMARK  status: ('A' for Active; 'I' for Inactive)
REMARK    1  A    between atoms: C_5  and  C_7
REMARK    2  A    between atoms: C_7  and  N_8
REMARK    3  A    between atoms: N_8  and  C_9
REMARK    4  A    between atoms: N_8  and  C_20
REMARK    5  A    between atoms: C_9  and  C_10
REMARK    6  A    between atoms: C_10  and  N_11
REMARK    7  A    between atoms: N_11  and  C_12
REMARK    8  A    between atoms: N_11  and  C_16
REMARK    9  A    between atoms: C_12  and  C_13
REMARK   10  A    between atoms: C_16  and  C_17
REMARK   11  A    between atoms: C_20  and  C_21
REMARK                            x       y       z     vdW  Elec       q    Type
REMARK                         _______ _______ _______ _____ _____    ______ ____
ROOT
ATOM      1  C   UNL     4       4.838   0.257   1.104  0.00  0.00    +0.000 C 
ENDROOT
BRANCH   1   2
ATOM      2  N   UNL     4       4.422  -0.943   0.337  0.00  0.00    +0.000 NA
BRANCH   2   3
ATOM      3  C   UNL     4       3.015  -1.255   0.499  0.00  0.00    +0.000 C 
BRANCH   3   5
ATOM      4  O   UNL     4       0.937  -0.105   0.511  0.00  0.00    +0.000 OA
ATOM      5  C   UNL     4       2.046  -0.233  -0.103  0.00  0.00    +0.000 C 
ATOM      6  O   UNL     4       2.203   0.476  -1.140  0.00  0.00    +0.000 OA
ENDBRANCH   3   5
ENDBRANCH   2   3
BRANCH   2   7
ATOM      7  C   UNL     4       5.267  -2.060   0.978  0.00  0.00    +0.000 C 
BRANCH   7   8
ATOM      8  C   UNL     4       6.832  -1.959   0.778  0.00  0.00    +0.000 C 
ATOM      9  O   UNL     4       7.236  -1.159  -0.114  0.00  0.00    +0.000 OA
ATOM     10  O   UNL     4       7.459  -2.841   1.436  0.00  0.00    +0.000 OA
ENDBRANCH   7   8
ENDBRANCH   2   7
ENDBRANCH   1   2
BRANCH   1  11
ATOM     11  C   UNL     4       4.220   1.577   0.671  0.00  0.00    +0.000 C 
BRANCH  11  12
ATOM     12  N   UNL     4       4.573   2.798   1.373  0.00  0.00    +0.000 NA
BRANCH  12  13
ATOM     13  C   UNL     4       6.065   3.001   1.298  0.00  0.00    +0.000 C 
BRANCH  13  14
ATOM     14  C   UNL     4       6.933   2.042   2.189  0.00  0.00    +0.000 C 
ATOM     15  O   UNL     4       6.327   1.395   3.097  0.00  0.00    +0.000 OA
ATOM     16  O   UNL     4       8.153   2.027   1.855  0.00  0.00    +0.000 OA
ENDBRANCH  13  14
ENDBRANCH  12  13
BRANCH  12  17
ATOM     17  C   UNL     4       3.903   3.965   0.796  0.00  0.00    +0.000 C 
BRANCH  17  18
ATOM     18  C   UNL     4       4.002   5.335   1.486  0.00  0.00    +0.000 C 
ATOM     19  O   UNL     4       4.611   5.438   2.594  0.00  0.00    +0.000 OA
ATOM     20  O   UNL     4       3.249   6.146   0.882  0.00  0.00    +0.000 OA
ENDBRANCH  17  18
ENDBRANCH  12  17
ENDBRANCH  11  12
ENDBRANCH   1  11
TORSDOF 11
