REMARK  Name = Edoxudine
REMARK  6 active torsions:
REMARK  status: ('A' for Active; 'I' for Inactive)
REMARK    1  A    between atoms: C_1  and  C_2
REMARK    2  A    between atoms: C_2  and  C_3
REMARK    3  A    between atoms: N_5  and  C1*_6
REMARK    4  A    between atoms: C3*_8  and  O3*_9
REMARK    5  A    between atoms: C4*_10  and  C5*_11
REMARK    6  A    between atoms: C5*_11  and  O5*_12
REMARK                            x       y       z     vdW  Elec       q    Type
REMARK                         _______ _______ _______ _____ _____    ______ ____
ROOT
ATOM      1  C   UNL     1       2.940  -1.453   0.321  0.00  0.00    +0.000 A 
ATOM      2  C   UNL     1       4.217  -1.688   0.670  0.00  0.00    +0.000 A 
ATOM      3  N   UNL     1       4.756  -2.965   0.714  0.00  0.00    +0.000 N 
ATOM      4  C   UNL     1       3.953  -4.088   0.580  0.00  0.00    +0.000 A 
ATOM      5  O   UNL     1       4.366  -5.240   0.487  0.00  0.00    +0.000 OA
ATOM      6  N   UNL     1       2.613  -3.842   0.520  0.00  0.00    +0.000 N 
ATOM      7  C   UNL     1       2.070  -2.650   0.168  0.00  0.00    +0.000 A 
ATOM      8  O   UNL     1       0.916  -2.616  -0.249  0.00  0.00    +0.000 OA
ATOM      9  H   UNL     1       2.016  -4.641   0.380  0.00  0.00    +0.000 HD
ENDROOT
BRANCH   3  10
ATOM     10  C1* UNL     1       6.197  -3.174   0.791  0.00  0.00    +0.000 C 
ATOM     11  C2* UNL     1       6.995  -2.481  -0.310  0.00  0.00    +0.000 C 
ATOM     12  C3* UNL     1       8.322  -2.229   0.363  0.00  0.00    +0.000 C 
ATOM     13  C4* UNL     1       7.938  -2.008   1.827  0.00  0.00    +0.000 C 
ATOM     14  O4* UNL     1       6.687  -2.688   2.050  0.00  0.00    +0.000 OA
BRANCH  12  15
ATOM     15  O3* UNL     1       9.166  -3.371   0.210  0.00  0.00    +0.000 OA
ATOM     16  H3* UNL     1       8.764  -4.137   0.656  0.00  0.00    +0.000 HD
ENDBRANCH  12  15
BRANCH  13  17
ATOM     17  C5* UNL     1       7.746  -0.529   2.164  0.00  0.00    +0.000 C 
BRANCH  17  18
ATOM     18  O5* UNL     1       8.949   0.206   1.996  0.00  0.00    +0.000 OA
ATOM     19  H5* UNL     1       9.622  -0.186   2.580  0.00  0.00    +0.000 HD
ENDBRANCH  17  18
ENDBRANCH  13  17
ENDBRANCH   3  10
BRANCH   1  21
ATOM     20  C   UNL     1       0.899   0.085   0.029  0.00  0.00    +0.000 C 
ATOM     21  C   UNL     1       2.415  -0.061   0.051  0.00  0.00    +0.000 C 
ENDBRANCH   1  21
TORSDOF 5
