REMARK  Name = Edoxaban
REMARK  8 active torsions:
REMARK  status: ('A' for Active; 'I' for Inactive)
REMARK    1  A    between atoms: C_1  and  N_2
REMARK    2  A    between atoms: N_2  and  C_3
REMARK    3  A    between atoms: C_4  and  C_6
REMARK    4  A    between atoms: C_9  and  N_10
REMARK    5  A    between atoms: C_11  and  C_13
REMARK    6  A    between atoms: C_23  and  N_25
REMARK    7  A    between atoms: C_26  and  C_28
REMARK    8  A    between atoms: N_33  and  C_34
REMARK                            x       y       z     vdW  Elec       q    Type
REMARK                         _______ _______ _______ _____ _____    ______ ____
ROOT
ATOM      1  C   UNL     1       4.791   1.193   0.591  0.00  0.00    +0.000 C 
ATOM      2  C   UNL     1       5.266   0.859  -0.823  0.00  0.00    +0.000 C 
ATOM      3  C   UNL     1       6.788   0.805  -0.866  0.00  0.00    +0.000 C 
ATOM      4  C   UNL     1       7.280  -0.397  -0.043  0.00  0.00    +0.000 C 
ATOM      5  C   UNL     1       6.732  -0.339   1.422  0.00  0.00    +0.000 C 
ATOM      6  C   UNL     1       5.221   0.011   1.478  0.00  0.00    +0.000 C 
ENDROOT
BRANCH   1  10
ATOM      7  C   UNL     1       5.535   4.942   1.058  0.00  0.00    +0.000 C 
ATOM      8  N   UNL     1       5.127   3.695   0.442  0.00  0.00    +0.000 N 
ATOM      9  C   UNL     1       4.696   3.767  -0.940  0.00  0.00    +0.000 C 
ATOM     10  C   UNL     1       5.252   2.533   1.193  0.00  0.00    +0.000 C 
ATOM     11  O   UNL     1       5.674   2.575   2.353  0.00  0.00    +0.000 OA
ENDBRANCH   1  10
BRANCH   4  12
ATOM     12  N   UNL     1       6.925  -1.642  -0.722  0.00  0.00    +0.000 N 
ATOM     13  C   UNL     1       7.538  -2.056  -1.889  0.00  0.00    +0.000 C 
ATOM     14  O   UNL     1       8.439  -1.457  -2.465  0.00  0.00    +0.000 OA
ATOM     15  H   UNL     1       6.121  -2.178  -0.381  0.00  0.00    +0.000 HD
BRANCH  13  16
ATOM     16  C   UNL     1       7.001  -3.378  -2.472  0.00  0.00    +0.000 C 
ATOM     17  O   UNL     1       6.085  -3.943  -1.881  0.00  0.00    +0.000 OA
ATOM     18  N   UNL     1       7.659  -3.827  -3.607  0.00  0.00    +0.000 N 
ATOM     19  C   UNL     1       7.334  -5.044  -4.221  0.00  0.00    +0.000 A 
ATOM     20  N   UNL     1       8.342  -5.826  -4.665  0.00  0.00    +0.000 NA
ATOM     21  C   UNL     1       7.995  -7.052  -5.160  0.00  0.00    +0.000 A 
ATOM     22  C   UNL     1       6.687  -7.496  -5.303  0.00  0.00    +0.000 A 
ATOM     23 CL   UNL     1       6.323  -9.050  -5.935  0.00  0.00    +0.000 Cl
ATOM     24  C   UNL     1       5.668  -6.640  -4.924  0.00  0.00    +0.000 A 
ATOM     25  C   UNL     1       5.997  -5.405  -4.369  0.00  0.00    +0.000 A 
ATOM     26  H   UNL     1       8.556  -3.412  -3.832  0.00  0.00    +0.000 HD
ENDBRANCH  13  16
ENDBRANCH   4  12
BRANCH   5  27
ATOM     27  N   UNL     1       7.043  -1.562   2.206  0.00  0.00    +0.000 N 
ATOM     28  C   UNL     1       6.279  -2.732   2.182  0.00  0.00    +0.000 C 
ATOM     29  O   UNL     1       5.278  -2.818   1.460  0.00  0.00    +0.000 OA
ATOM     30  H   UNL     1       7.932  -1.603   2.697  0.00  0.00    +0.000 HD
BRANCH  28  31
ATOM     31  C   UNL     1       6.705  -3.842   3.031  0.00  0.00    +0.000 A 
ATOM     32  N   UNL     1       7.350  -3.685   4.172  0.00  0.00    +0.000 NA
ATOM     33  C   UNL     1       7.448  -4.916   4.787  0.00  0.00    +0.000 A 
ATOM     34  C   UNL     1       6.960  -6.009   4.097  0.00  0.00    +0.000 A 
ATOM     35  C   UNL     1       7.027  -7.431   4.599  0.00  0.00    +0.000 C 
ATOM     36  N   UNL     1       7.325  -7.486   6.062  0.00  0.00    +0.000 NA
ATOM     37  C   UNL     1       6.114  -7.221   6.850  0.00  0.00    +0.000 C 
ATOM     38  C   UNL     1       8.402  -6.519   6.408  0.00  0.00    +0.000 C 
ATOM     39  C   UNL     1       8.015  -5.049   6.151  0.00  0.00    +0.000 C 
ATOM     40  S   UNL     1       6.289  -5.479   2.624  0.00  0.00    +0.000 S 
ENDBRANCH  28  31
ENDBRANCH   5  27
TORSDOF 5
