REMARK  Name = Edrophonium
REMARK  6 active torsions:
REMARK  status: ('A' for Active; 'I' for Inactive)
REMARK    1  A    between atoms: C_1  and  C_2
REMARK    2  A    between atoms: C_2  and  N_3
REMARK    3  A    between atoms: N_3  and  C_4
REMARK    4  A    between atoms: N_3  and  C_5
REMARK    5  A    between atoms: N_3  and  C_6
REMARK    6  A    between atoms: C_8  and  O_9
REMARK                            x       y       z     vdW  Elec       q    Type
REMARK                         _______ _______ _______ _____ _____    ______ ____
ROOT
ATOM      1  C   UNL     1       4.558  -1.197  -1.151  0.00  0.00    +0.000 A 
ATOM      2  C   UNL     1       5.360  -1.213   0.058  0.00  0.00    +0.000 A 
ATOM      3  C   UNL     1       6.749  -1.465  -0.012  0.00  0.00    +0.000 A 
ATOM      4  C   UNL     1       7.335  -1.794  -1.202  0.00  0.00    +0.000 A 
ATOM      5  C   UNL     1       6.584  -1.762  -2.379  0.00  0.00    +0.000 A 
ATOM      6  C   UNL     1       5.230  -1.349  -2.354  0.00  0.00    +0.000 A 
ENDROOT
BRANCH   1   7
ATOM      7  N   UNL     1       2.999  -1.431  -1.023  0.00  0.00    +0.000 NA
ATOM      8  C   UNL     1       3.388  -3.097  -1.404  0.00  0.00    +0.000 C 
ATOM      9  C   UNL     1       1.658  -1.904  -1.515  0.00  0.00    +0.000 C 
BRANCH   7  11
ATOM     10  C   UNL     1       1.122   0.150   0.113  0.00  0.00    +0.000 C 
ATOM     11  C   UNL     1       2.607  -0.252  -0.037  0.00  0.00    +0.000 C 
ENDBRANCH   7  11
ENDBRANCH   1   7
BRANCH   3  12
ATOM     12  O   UNL     1       7.566  -1.460   1.091  0.00  0.00    +0.000 OA
ATOM     13  H   UNL     1       7.139  -1.129   1.885  0.00  0.00    +0.000 HD
ENDBRANCH   3  12
TORSDOF 3
