REMARK  Name = Efavirenz
REMARK  3 active torsions:
REMARK  status: ('A' for Active; 'I' for Inactive)
REMARK    1  A    between atoms: C_2  and  C_5
REMARK    2  A    between atoms: C_5  and  C_17
REMARK    3  A    between atoms: C_18  and  C_19
REMARK                            x       y       z     vdW  Elec       q    Type
REMARK                         _______ _______ _______ _____ _____    ______ ____
ROOT
ATOM      1  C   UNL     1       2.826  -0.907  -1.119  0.00  0.00    +0.000 C 
ATOM      2  O   UNL     1       1.802  -1.900  -1.343  0.00  0.00    +0.000 OA
ATOM      3  C   UNL     1       1.801  -2.978  -0.525  0.00  0.00    +0.000 C 
ATOM      4  O   UNL     1       0.779  -3.397   0.001  0.00  0.00    +0.000 OA
ATOM      5  N   UNL     1       3.007  -3.617  -0.417  0.00  0.00    +0.000 N 
ATOM      6  C   UNL     1       4.197  -2.894  -0.393  0.00  0.00    +0.000 A 
ATOM      7  C   UNL     1       4.149  -1.541  -0.724  0.00  0.00    +0.000 A 
ATOM      8  C   UNL     1       5.321  -0.775  -0.631  0.00  0.00    +0.000 A 
ATOM      9  C   UNL     1       6.510  -1.347  -0.211  0.00  0.00    +0.000 A 
ATOM     10 CL   UNL     1       7.920  -0.369  -0.131  0.00  0.00    +0.000 Cl
ATOM     11  C   UNL     1       6.546  -2.689   0.149  0.00  0.00    +0.000 A 
ATOM     12  C   UNL     1       5.387  -3.472   0.055  0.00  0.00    +0.000 A 
ATOM     13  H   UNL     1       2.975  -4.578  -0.097  0.00  0.00    +0.000 HD
ENDROOT
BRANCH   1  15
ATOM     14  F   UNL     1       3.839   0.971  -2.275  0.00  0.00    +0.000 F 
ATOM     15  C   UNL     1       3.004  -0.089  -2.435  0.00  0.00    +0.000 C 
ATOM     16  F   UNL     1       1.838   0.417  -2.900  0.00  0.00    +0.000 F 
ATOM     17  F   UNL     1       3.533  -0.847  -3.431  0.00  0.00    +0.000 F 
ENDBRANCH   1  15
BRANCH   1  18
ATOM     18  C   UNL     1       2.348  -0.025  -0.018  0.00  0.00    +0.000 C 
ATOM     19  C   UNL     1       1.953   0.669   0.889  0.00  0.00    +0.000 C 
BRANCH  19  20
ATOM     20  C   UNL     1       1.431   1.475   1.956  0.00  0.00    +0.000 C 
ATOM     21  C   UNL     1       2.222   1.617   3.235  0.00  0.00    +0.000 C 
ATOM     22  C   UNL     1       2.105   2.783   2.295  0.00  0.00    +0.000 C 
ENDBRANCH  19  20
ENDBRANCH   1  18
TORSDOF 3
