REMARK  Name = Efinaconazole
REMARK  7 active torsions:
REMARK  status: ('A' for Active; 'I' for Inactive)
REMARK    1  A    between atoms: C_1  and  C_2
REMARK    2  A    between atoms: C_2  and  N_3
REMARK    3  A    between atoms: C_2  and  C_10
REMARK    4  A    between atoms: C_10  and  O_11
REMARK    5  A    between atoms: C_10  and  C_12
REMARK    6  A    between atoms: C_10  and  C_18
REMARK    7  A    between atoms: C_12  and  N_13
REMARK                            x       y       z     vdW  Elec       q    Type
REMARK                         _______ _______ _______ _____ _____    ______ ____
ROOT
ATOM      1  C   UNL     1       3.103   1.262  -1.288  0.00  0.00    +0.000 C 
ENDROOT
BRANCH   1   2
ATOM      2  C   UNL     1       4.862   1.423  -1.409  0.00  0.00    +0.000 A 
ATOM      3  C   UNL     1       5.747   0.527  -2.240  0.00  0.00    +0.000 A 
ATOM      4  F   UNL     1       5.265  -0.236  -3.238  0.00  0.00    +0.000 F 
ATOM      5  C   UNL     1       7.057   0.176  -1.907  0.00  0.00    +0.000 A 
ATOM      6  C   UNL     1       7.681   0.999  -1.022  0.00  0.00    +0.000 A 
ATOM      7  F   UNL     1       9.007   0.893  -0.865  0.00  0.00    +0.000 F 
ATOM      8  C   UNL     1       6.956   1.995  -0.345  0.00  0.00    +0.000 A 
ATOM      9  C   UNL     1       5.546   2.135  -0.433  0.00  0.00    +0.000 A 
ENDBRANCH   1   2
BRANCH   1  11
ATOM     10  C   UNL     1       0.924  -0.119  -2.765  0.00  0.00    +0.000 C 
ATOM     11  C   UNL     1       2.422  -0.015  -2.448  0.00  0.00    +0.000 C 
BRANCH  11  12
ATOM     12  N   UNL     1       3.118  -1.398  -2.398  0.00  0.00    +0.000 NA
ATOM     13  C   UNL     1       3.953  -1.277  -1.254  0.00  0.00    +0.000 C 
ATOM     14  C   UNL     1       3.278  -1.291   0.070  0.00  0.00    +0.000 C 
ATOM     15  C   UNL     1       3.440  -2.677   0.343  0.00  0.00    +0.000 C 
ATOM     16  C   UNL     1       4.300  -2.929   1.390  0.00  0.00    +0.000 C 
ATOM     17  C   UNL     1       2.743  -3.445  -0.766  0.00  0.00    +0.000 C 
ATOM     18  C   UNL     1       2.980  -2.853  -2.259  0.00  0.00    +0.000 C 
ENDBRANCH  11  12
ENDBRANCH   1  11
BRANCH   1  19
ATOM     19  O   UNL     1       2.668   0.969   0.099  0.00  0.00    +0.000 OA
ATOM     20  H   UNL     1       3.287   1.156   0.822  0.00  0.00    +0.000 HD
ENDBRANCH   1  19
BRANCH   1  21
ATOM     21  C   UNL     1       2.403   2.614  -1.291  0.00  0.00    +0.000 C 
BRANCH  21  22
ATOM     22  N   UNL     1       0.960   2.553  -1.049  0.00  0.00    +0.000 N 
ATOM     23  C   UNL     1       0.148   1.539  -0.601  0.00  0.00    +0.000 A 
ATOM     24  N   UNL     1      -1.111   1.868  -0.753  0.00  0.00    +0.000 NA
ATOM     25  C   UNL     1      -1.018   3.178  -1.090  0.00  0.00    +0.000 A 
ATOM     26  N   UNL     1       0.218   3.656  -1.255  0.00  0.00    +0.000 NA
ENDBRANCH  21  22
ENDBRANCH   1  21
TORSDOF 6
