REMARK  Name = Eflornithine
REMARK  8 active torsions:
REMARK  status: ('A' for Active; 'I' for Inactive)
REMARK    1  A    between atoms: N_1  and  C_2
REMARK    2  A    between atoms: C_2  and  C_3
REMARK    3  A    between atoms: C_3  and  C_4
REMARK    4  A    between atoms: C_4  and  C_5
REMARK    5  A    between atoms: C_5  and  N_6
REMARK    6  A    between atoms: C_5  and  C_7
REMARK    7  A    between atoms: C_5  and  C_10
REMARK    8  A    between atoms: C_10  and  O_11
REMARK                            x       y       z     vdW  Elec       q    Type
REMARK                         _______ _______ _______ _____ _____    ______ ____
ROOT
ATOM      1  C   UNL     1       4.975  -2.051   1.987  0.00  0.00    +0.000 C 
ENDROOT
BRANCH   1   2
ATOM      2  N   UNL     1       4.522  -1.708   3.368  0.00  0.00    +0.000 NA
ATOM      3  H   UNL     1       3.508  -1.800   3.436  0.00  0.00    +0.000 HD
ATOM      4  H   UNL     1       4.784  -0.763   3.632  0.00  0.00    +0.000 HD
ENDBRANCH   1   2
BRANCH   1   5
ATOM      5  C   UNL     1       4.525  -3.476   1.550  0.00  0.00    +0.000 C 
ATOM      6  F   UNL     1       4.975  -4.440   2.386  0.00  0.00    +0.000 F 
ATOM      7  F   UNL     1       3.167  -3.581   1.598  0.00  0.00    +0.000 F 
ENDBRANCH   1   5
BRANCH   1   8
ATOM      8  C   UNL     1       6.526  -2.094   1.982  0.00  0.00    +0.000 C 
ATOM      9  O   UNL     1       7.192  -2.857   2.677  0.00  0.00    +0.000 OA
BRANCH   8  10
ATOM     10  O   UNL     1       7.173  -1.218   1.178  0.00  0.00    +0.000 OA
ATOM     11  H   UNL     1       6.671  -0.567   0.659  0.00  0.00    +0.000 HD
ENDBRANCH   8  10
ENDBRANCH   1   8
BRANCH   1  12
ATOM     12  C   UNL     1       4.404  -0.986   1.014  0.00  0.00    +0.000 C 
BRANCH  12  13
ATOM     13  C   UNL     1       2.876  -0.923   0.964  0.00  0.00    +0.000 C 
BRANCH  13  14
ATOM     14  C   UNL     1       2.385   0.143   0.000  0.00  0.00    +0.000 C 
BRANCH  14  15
ATOM     15  N   UNL     1       0.933   0.113   0.001  0.00  0.00    +0.000 NA
ATOM     16  H   UNL     1       0.566   0.838  -0.611  0.00  0.00    +0.000 HD
ATOM     17  H   UNL     1       0.576   0.306   0.937  0.00  0.00    +0.000 HD
ENDBRANCH  14  15
ENDBRANCH  13  14
ENDBRANCH  12  13
ENDBRANCH   1  12
TORSDOF 8
