REMARK  Name = Elagolix
REMARK  16 active torsions:
REMARK  status: ('A' for Active; 'I' for Inactive)
REMARK    1  A    between atoms: C_1  and  O_2
REMARK    2  A    between atoms: O_2  and  C_3
REMARK    3  A    between atoms: C_7  and  C_10
REMARK    4  A    between atoms: C_11  and  C_12
REMARK    5  A    between atoms: N_13  and  C_14
REMARK    6  A    between atoms: C_14  and  C_15
REMARK    7  A    between atoms: C_16  and  C_22
REMARK    8  A    between atoms: N_28  and  C_29
REMARK    9  A    between atoms: C_29  and  C_30
REMARK   10  A    between atoms: C_30  and  N_31
REMARK   11  A    between atoms: C_30  and  C_38
REMARK   12  A    between atoms: N_31  and  C_32
REMARK   13  A    between atoms: C_32  and  C_33
REMARK   14  A    between atoms: C_33  and  C_34
REMARK   15  A    between atoms: C_34  and  C_35
REMARK   16  A    between atoms: C_35  and  O_36
REMARK                            x       y       z     vdW  Elec       q    Type
REMARK                         _______ _______ _______ _____ _____    ______ ____
ROOT
ATOM      1  C   UNL     1       5.831   1.639   3.077  0.00  0.00    +0.000 A 
ATOM      2  C   UNL     1       4.600   1.926   2.604  0.00  0.00    +0.000 A 
ATOM      3  C   UNL     1       4.352   2.613   1.277  0.00  0.00    +0.000 C 
ATOM      4  N   UNL     1       3.470   1.515   3.310  0.00  0.00    +0.000 N 
ATOM      5  C   UNL     1       3.598   0.637   4.363  0.00  0.00    +0.000 A 
ATOM      6  O   UNL     1       2.655  -0.107   4.648  0.00  0.00    +0.000 OA
ATOM      7  N   UNL     1       4.800   0.560   5.009  0.00  0.00    +0.000 N 
ATOM      8  C   UNL     1       5.973   0.930   4.388  0.00  0.00    +0.000 A 
ATOM      9  O   UNL     1       7.085   0.693   4.856  0.00  0.00    +0.000 OA
ENDROOT
BRANCH   1  14
ATOM     10  C   UNL     1       9.016   1.316   1.091  0.00  0.00    +0.000 A 
ATOM     11  C   UNL     1       9.314   2.662   0.858  0.00  0.00    +0.000 A 
ATOM     12  C   UNL     1       8.470   3.671   1.327  0.00  0.00    +0.000 A 
ATOM     13  C   UNL     1       7.345   3.338   2.072  0.00  0.00    +0.000 A 
ATOM     14  C   UNL     1       7.048   1.994   2.334  0.00  0.00    +0.000 A 
ATOM     15  C   UNL     1       7.894   0.989   1.850  0.00  0.00    +0.000 A 
ATOM     16  F   UNL     1       7.604  -0.294   2.121  0.00  0.00    +0.000 F 
BRANCH  10  18
ATOM     17  C   UNL     1       9.288  -0.667  -0.127  0.00  0.00    +0.000 C 
ATOM     18  O   UNL     1       9.904   0.404   0.587  0.00  0.00    +0.000 OA
ENDBRANCH  10  18
ENDBRANCH   1  14
BRANCH   4  19
ATOM     19  C   UNL     1       2.108   1.821   2.794  0.00  0.00    +0.000 C 
BRANCH  19  20
ATOM     20  C   UNL     1       0.916   1.383   3.631  0.00  0.00    +0.000 A 
ATOM     21  C   UNL     1       0.053   0.333   3.221  0.00  0.00    +0.000 A 
ATOM     22  C   UNL     1      -0.870  -0.212   4.135  0.00  0.00    +0.000 A 
ATOM     23  C   UNL     1      -0.947   0.267   5.435  0.00  0.00    +0.000 A 
ATOM     24  C   UNL     1      -0.138   1.328   5.812  0.00  0.00    +0.000 A 
ATOM     25  C   UNL     1       0.782   1.881   4.930  0.00  0.00    +0.000 A 
ATOM     26  F   UNL     1       1.651   2.796   5.390  0.00  0.00    +0.000 F 
BRANCH  21  27
ATOM     27  C   UNL     1       0.141  -0.243   1.834  0.00  0.00    +0.000 C 
ATOM     28  F   UNL     1      -0.020   0.726   0.888  0.00  0.00    +0.000 F 
ATOM     29  F   UNL     1       1.338  -0.831   1.565  0.00  0.00    +0.000 F 
ATOM     30  F   UNL     1      -0.807  -1.181   1.564  0.00  0.00    +0.000 F 
ENDBRANCH  21  27
ENDBRANCH  19  20
ENDBRANCH   4  19
BRANCH   7  31
ATOM     31  C   UNL     1       4.916  -0.219   6.250  0.00  0.00    +0.000 C 
BRANCH  31  32
ATOM     32  C   UNL     1       3.601  -0.584   6.992  0.00  0.00    +0.000 C 
BRANCH  32  33
ATOM     33  C   UNL     1       3.852  -1.669   8.010  0.00  0.00    +0.000 A 
ATOM     34  C   UNL     1       4.119  -1.340   9.340  0.00  0.00    +0.000 A 
ATOM     35  C   UNL     1       4.011  -2.308  10.318  0.00  0.00    +0.000 A 
ATOM     36  C   UNL     1       3.779  -3.631   9.954  0.00  0.00    +0.000 A 
ATOM     37  C   UNL     1       3.619  -3.989   8.614  0.00  0.00    +0.000 A 
ATOM     38  C   UNL     1       3.635  -3.006   7.638  0.00  0.00    +0.000 A 
ENDBRANCH  32  33
BRANCH  32  39
ATOM     39  N   UNL     1       2.949   0.628   7.547  0.00  0.00    +0.000 NA
ATOM     40  H   UNL     1       3.633   1.192   8.041  0.00  0.00    +0.000 HD
BRANCH  39  41
ATOM     41  C   UNL     1       1.789   0.312   8.373  0.00  0.00    +0.000 C 
BRANCH  41  42
ATOM     42  C   UNL     1       1.285   1.580   9.028  0.00  0.00    +0.000 C 
BRANCH  42  43
ATOM     43  C   UNL     1       0.149   1.244   9.980  0.00  0.00    +0.000 C 
BRANCH  43  44
ATOM     44  C   UNL     1      -0.495   2.434  10.642  0.00  0.00    +0.000 C 
ATOM     45  O   UNL     1      -1.409   2.305  11.445  0.00  0.00    +0.000 OA
BRANCH  44  46
ATOM     46  O   UNL     1      -0.024   3.651  10.310  0.00  0.00    +0.000 OA
ATOM     47  H   UNL     1       0.705   3.701   9.665  0.00  0.00    +0.000 HD
ENDBRANCH  44  46
ENDBRANCH  43  44
ENDBRANCH  42  43
ENDBRANCH  41  42
ENDBRANCH  39  41
ENDBRANCH  32  39
ENDBRANCH  31  32
ENDBRANCH   7  31
TORSDOF 14
