REMARK  Name = Eletriptan
REMARK  7 active torsions:
REMARK  status: ('A' for Active; 'I' for Inactive)
REMARK    1  A    between atoms: C_1  and  N_2
REMARK    2  A    between atoms: C_6  and  C_7
REMARK    3  A    between atoms: C_7  and  C_8
REMARK    4  A    between atoms: C_14  and  C_15
REMARK    5  A    between atoms: C_15  and  C_16
REMARK    6  A    between atoms: C_16  and  S_17
REMARK    7  A    between atoms: S_17  and  C_20
REMARK                            x       y       z     vdW  Elec       q    Type
REMARK                         _______ _______ _______ _____ _____    ______ ____
ROOT
ATOM      1  C   UNL     1      -1.856  -2.865  -0.419  0.00  0.00    +0.000 A 
ATOM      2  C   UNL     1      -2.315  -3.935   0.328  0.00  0.00    +0.000 A 
ATOM      3  N   UNL     1      -3.683  -3.853   0.401  0.00  0.00    +0.000 N 
ATOM      4  C   UNL     1      -4.134  -2.759  -0.301  0.00  0.00    +0.000 A 
ATOM      5  C   UNL     1      -3.029  -2.211  -0.950  0.00  0.00    +0.000 A 
ATOM      6  C   UNL     1      -3.219  -1.037  -1.728  0.00  0.00    +0.000 A 
ATOM      7  C   UNL     1      -4.451  -0.359  -1.708  0.00  0.00    +0.000 A 
ATOM      8  C   UNL     1      -5.535  -0.972  -1.068  0.00  0.00    +0.000 A 
ATOM      9  C   UNL     1      -5.407  -2.188  -0.383  0.00  0.00    +0.000 A 
ATOM     10  H   UNL     1      -4.271  -4.458   0.958  0.00  0.00    +0.000 HD
ENDROOT
BRANCH   1  11
ATOM     11  C   UNL     1      -0.419  -2.417  -0.571  0.00  0.00    +0.000 C 
BRANCH  11  17
ATOM     12  C   UNL     1      -1.982   0.290   0.536  0.00  0.00    +0.000 C 
ATOM     13  N   UNL     1      -0.710   0.116  -0.157  0.00  0.00    +0.000 NA
ATOM     14  C   UNL     1       0.137   1.236   0.234  0.00  0.00    +0.000 C 
ATOM     15  C   UNL     1       1.546   0.757  -0.004  0.00  0.00    +0.000 C 
ATOM     16  C   UNL     1       1.462  -0.767  -0.037  0.00  0.00    +0.000 C 
ATOM     17  C   UNL     1      -0.013  -1.129   0.220  0.00  0.00    +0.000 C 
ENDBRANCH  11  17
ENDBRANCH   1  11
BRANCH   7  18
ATOM     18  C   UNL     1      -4.509   1.050  -2.285  0.00  0.00    +0.000 C 
BRANCH  18  19
ATOM     19  C   UNL     1      -5.930   1.553  -2.450  0.00  0.00    +0.000 C 
BRANCH  19  20
ATOM     20  S   UNL     1      -6.021   3.079  -3.340  0.00  0.00    +0.000 S 
ATOM     21  O   UNL     1      -5.448   4.109  -2.482  0.00  0.00    +0.000 OA
ATOM     22  O   UNL     1      -5.541   2.861  -4.683  0.00  0.00    +0.000 OA
BRANCH  20  23
ATOM     23  C   UNL     1      -7.766   3.435  -3.468  0.00  0.00    +0.000 A 
ATOM     24  C   UNL     1      -8.179   4.770  -3.477  0.00  0.00    +0.000 A 
ATOM     25  C   UNL     1      -9.543   5.068  -3.434  0.00  0.00    +0.000 A 
ATOM     26  C   UNL     1     -10.487   4.041  -3.455  0.00  0.00    +0.000 A 
ATOM     27  C   UNL     1     -10.072   2.711  -3.475  0.00  0.00    +0.000 A 
ATOM     28  C   UNL     1      -8.711   2.404  -3.474  0.00  0.00    +0.000 A 
ENDBRANCH  20  23
ENDBRANCH  19  20
ENDBRANCH  18  19
ENDBRANCH   7  18
TORSDOF 6
