REMARK  Name = Elexacaftor
REMARK  15 active torsions:
REMARK  status: ('A' for Active; 'I' for Inactive)
REMARK    1  A    between atoms: C_1  and  C_2
REMARK    2  A    between atoms: C_7  and  N_24
REMARK    3  A    between atoms: C_10  and  C_11
REMARK    4  A    between atoms: N_13  and  S_14
REMARK    5  A    between atoms: S_14  and  C_17
REMARK    6  A    between atoms: N_19  and  C_20
REMARK    7  A    between atoms: C_22  and  C_23
REMARK    8  A    between atoms: C_27  and  O_28
REMARK    9  A    between atoms: O_28  and  C_29
REMARK   10  A    between atoms: C_29  and  C_30
REMARK   11  A    between atoms: C_30  and  C_31
REMARK   12  A    between atoms: C_30  and  C_32
REMARK   13  A    between atoms: C_30  and  C_33
REMARK   14  A    between atoms: C_38  and  C_39
REMARK   15  A    between atoms: C_38  and  C_40
REMARK                            x       y       z     vdW  Elec       q    Type
REMARK                         _______ _______ _______ _____ _____    ______ ____
ROOT
ATOM      1  C   UNL     1       1.085   0.035   0.000  0.00  0.00    +0.000 C 
ATOM      2  C   UNL     1       2.603   0.017   0.057  0.00  0.00    +0.000 C 
ATOM      3  C   UNL     1       3.139  -1.241   0.760  0.00  0.00    +0.000 C 
ATOM      4  N   UNL     1       4.349  -0.799   1.471  0.00  0.00    +0.000 N 
ATOM      5  C   UNL     1       5.183  -1.695   2.107  0.00  0.00    +0.000 A 
ATOM      6  N   UNL     1       5.275  -1.565   3.481  0.00  0.00    +0.000 NA
ATOM      7  C   UNL     1       6.039  -2.430   4.215  0.00  0.00    +0.000 A 
ATOM      8  C   UNL     1       6.714  -3.484   3.608  0.00  0.00    +0.000 A 
ATOM      9  C   UNL     1       6.600  -3.651   2.215  0.00  0.00    +0.000 A 
ATOM     10  C   UNL     1       5.860  -2.744   1.429  0.00  0.00    +0.000 A 
ATOM     11  C   UNL     1       4.599   0.644   1.264  0.00  0.00    +0.000 C 
ATOM     12  C   UNL     1       5.130   1.369   2.496  0.00  0.00    +0.000 C 
ATOM     13  C   UNL     1       5.569   0.910   0.099  0.00  0.00    +0.000 C 
ATOM     14  C   UNL     1       3.191   1.162   0.881  0.00  0.00    +0.000 C 
ENDROOT
BRANCH   7  15
ATOM     15  N   UNL     1       6.186  -2.251   5.647  0.00  0.00    +0.000 N 
ATOM     16  C   UNL     1       7.390  -2.220   6.343  0.00  0.00    +0.000 A 
ATOM     17  C   UNL     1       7.091  -2.031   7.671  0.00  0.00    +0.000 A 
ATOM     18  C   UNL     1       5.691  -2.043   7.717  0.00  0.00    +0.000 A 
ATOM     19  N   UNL     1       5.119  -2.155   6.514  0.00  0.00    +0.000 NA
BRANCH  18  20
ATOM     20  O   UNL     1       5.001  -1.927   8.874  0.00  0.00    +0.000 OA
BRANCH  20  21
ATOM     21  C   UNL     1       3.577  -2.007   8.800  0.00  0.00    +0.000 C 
BRANCH  21  22
ATOM     22  C   UNL     1       3.001  -1.836  10.232  0.00  0.00    +0.000 C 
ATOM     23  C   UNL     1       3.525  -2.944  11.163  0.00  0.00    +0.000 C 
ATOM     24  C   UNL     1       3.411  -0.472  10.817  0.00  0.00    +0.000 C 
BRANCH  22  25
ATOM     25  C   UNL     1       1.480  -1.916  10.169  0.00  0.00    +0.000 C 
ATOM     26  F   UNL     1       0.961  -0.949   9.382  0.00  0.00    +0.000 F 
ATOM     27  F   UNL     1       1.064  -3.106   9.684  0.00  0.00    +0.000 F 
ATOM     28  F   UNL     1       0.930  -1.770  11.398  0.00  0.00    +0.000 F 
ENDBRANCH  22  25
ENDBRANCH  21  22
ENDBRANCH  20  21
ENDBRANCH  18  20
ENDBRANCH   7  15
BRANCH  10  29
ATOM     29  C   UNL     1       5.831  -2.843  -0.083  0.00  0.00    +0.000 C 
ATOM     30  O   UNL     1       5.362  -1.953  -0.778  0.00  0.00    +0.000 OA
ATOM     31  N   UNL     1       6.382  -3.969  -0.737  0.00  0.00    +0.000 N 
ATOM     32  H   UNL     1       6.907  -4.703  -0.288  0.00  0.00    +0.000 HD
BRANCH  31  33
ATOM     33  S   UNL     1       6.239  -4.070  -2.425  0.00  0.00    +0.000 S 
ATOM     34  O   UNL     1       4.856  -4.356  -2.740  0.00  0.00    +0.000 OA
ATOM     35  O   UNL     1       6.973  -2.982  -3.030  0.00  0.00    +0.000 OA
BRANCH  33  36
ATOM     36  C   UNL     1       7.053  -5.489  -2.983  0.00  0.00    +0.000 A 
ATOM     37  C   UNL     1       6.644  -6.793  -2.781  0.00  0.00    +0.000 A 
ATOM     38  N   UNL     1       7.530  -7.578  -3.456  0.00  0.00    +0.000 N 
ATOM     39  C   UNL     1       7.504  -9.018  -3.578  0.00  0.00    +0.000 C 
ATOM     40  N   UNL     1       8.515  -6.880  -4.045  0.00  0.00    +0.000 NA
ATOM     41  C   UNL     1       8.211  -5.593  -3.798  0.00  0.00    +0.000 A 
ATOM     42  C   UNL     1       9.075  -4.530  -4.377  0.00  0.00    +0.000 C 
ENDBRANCH  33  36
ENDBRANCH  31  33
ENDBRANCH  10  29
TORSDOF 8
