REMARK  Name = Eliglustat
REMARK  13 active torsions:
REMARK  status: ('A' for Active; 'I' for Inactive)
REMARK    1  A    between atoms: C_1  and  C_2
REMARK    2  A    between atoms: C_2  and  C_3
REMARK    3  A    between atoms: C_3  and  C_4
REMARK    4  A    between atoms: C_4  and  C_5
REMARK    5  A    between atoms: C_5  and  C_6
REMARK    6  A    between atoms: C_6  and  C_7
REMARK    7  A    between atoms: C_7  and  C_8
REMARK    8  A    between atoms: N_10  and  C_11
REMARK    9  A    between atoms: C_11  and  C_12
REMARK   10  A    between atoms: C_11  and  C_18
REMARK   11  A    between atoms: C_12  and  N_13
REMARK   12  A    between atoms: C_18  and  O_19
REMARK   13  A    between atoms: C_18  and  C_20
REMARK                            x       y       z     vdW  Elec       q    Type
REMARK                         _______ _______ _______ _____ _____    ______ ____
ROOT
ATOM      1  C   UNL     1      10.772   7.344   1.425  0.00  0.00    +0.000 C 
ENDROOT
BRANCH   1   4
ATOM      2  C   UNL     1       9.567   5.451   2.532  0.00  0.00    +0.000 C 
ATOM      3  O   UNL     1       8.498   4.995   2.885  0.00  0.00    +0.000 OA
ATOM      4  N   UNL     1       9.600   6.648   1.900  0.00  0.00    +0.000 N 
ATOM      5  H   UNL     1       8.700   7.110   1.821  0.00  0.00    +0.000 HD
BRANCH   2   6
ATOM      6  C   UNL     1      10.905   4.781   2.756  0.00  0.00    +0.000 C 
BRANCH   6   7
ATOM      7  C   UNL     1      10.716   3.412   3.315  0.00  0.00    +0.000 C 
BRANCH   7   8
ATOM      8  C   UNL     1      12.086   2.777   3.416  0.00  0.00    +0.000 C 
BRANCH   8   9
ATOM      9  C   UNL     1      11.914   1.427   4.058  0.00  0.00    +0.000 C 
BRANCH   9  10
ATOM     10  C   UNL     1      13.256   0.746   4.193  0.00  0.00    +0.000 C 
BRANCH  10  12
ATOM     11  C   UNL     1      14.395  -1.313   4.991  0.00  0.00    +0.000 C 
ATOM     12  C   UNL     1      13.063  -0.611   4.845  0.00  0.00    +0.000 C 
ENDBRANCH  10  12
ENDBRANCH   9  10
ENDBRANCH   8   9
ENDBRANCH   7   8
ENDBRANCH   6   7
ENDBRANCH   2   6
ENDBRANCH   1   4
BRANCH   1  13
ATOM     13  C   UNL     1      11.798   7.724   2.610  0.00  0.00    +0.000 C 
BRANCH  13  14
ATOM     14  N   UNL     1      11.620   9.129   2.941  0.00  0.00    +0.000 NA
ATOM     15  C   UNL     1      11.652   9.949   1.756  0.00  0.00    +0.000 C 
ATOM     16  C   UNL     1      12.871  10.792   1.888  0.00  0.00    +0.000 C 
ATOM     17  C   UNL     1      12.774  11.154   3.343  0.00  0.00    +0.000 C 
ATOM     18  C   UNL     1      12.315   9.842   4.012  0.00  0.00    +0.000 C 
ENDBRANCH  13  14
ENDBRANCH   1  13
BRANCH   1  19
ATOM     19  C   UNL     1      11.344   6.884   0.018  0.00  0.00    +0.000 C 
BRANCH  19  20
ATOM     20  C   UNL     1      12.856   6.849  -0.091  0.00  0.00    +0.000 A 
ATOM     21  C   UNL     1      13.603   8.042  -0.156  0.00  0.00    +0.000 A 
ATOM     22  C   UNL     1      14.982   8.057   0.018  0.00  0.00    +0.000 A 
ATOM     23  C   UNL     1      15.657   6.856   0.076  0.00  0.00    +0.000 A 
ATOM     24  O   UNL     1      17.021   6.932   0.140  0.00  0.00    +0.000 OA
ATOM     25  C   UNL     1      17.600   5.700  -0.292  0.00  0.00    +0.000 C 
ATOM     26  C   UNL     1      16.931   4.526   0.403  0.00  0.00    +0.000 C 
ATOM     27  O   UNL     1      15.550   4.424   0.051  0.00  0.00    +0.000 OA
ATOM     28  C   UNL     1      14.948   5.652   0.035  0.00  0.00    +0.000 A 
ATOM     29  C   UNL     1      13.559   5.647  -0.029  0.00  0.00    +0.000 A 
ENDBRANCH  19  20
BRANCH  19  30
ATOM     30  O   UNL     1      10.757   5.664  -0.447  0.00  0.00    +0.000 OA
ATOM     31  H   UNL     1      10.871   4.992   0.236  0.00  0.00    +0.000 HD
ENDBRANCH  19  30
ENDBRANCH   1  19
TORSDOF 12
