REMARK  Name = Eltrombopag
REMARK  10 active torsions:
REMARK  status: ('A' for Active; 'I' for Inactive)
REMARK    1  A    between atoms: C_1  and  C_2
REMARK    2  A    between atoms: N_4  and  C_26
REMARK    3  A    between atoms: N_8  and  N_9
REMARK    4  A    between atoms: N_9  and  C_10
REMARK    5  A    between atoms: C_14  and  C_15
REMARK    6  A    between atoms: C_19  and  C_21
REMARK    7  A    between atoms: C_21  and  O_22
REMARK    8  A    between atoms: C_24  and  O_25
REMARK    9  A    between atoms: C_29  and  C_30
REMARK   10  A    between atoms: C_31  and  C_32
REMARK                            x       y       z     vdW  Elec       q    Type
REMARK                         _______ _______ _______ _____ _____    ______ ____
ROOT
ATOM      1  N   UNL     1      -1.019   2.778   0.084  0.00  0.00    +0.000 N 
ATOM      2  H   UNL     1      -1.952   2.355   0.071  0.00  0.00    +0.000 HD
ENDROOT
BRANCH   1  10
ATOM      3  C   UNL     1       2.577   0.239   0.022  0.00  0.00    +0.000 C 
ATOM      4  C   UNL     1       1.157  -0.199   0.030  0.00  0.00    +0.000 C 
ATOM      5  N   UNL     1       0.725  -1.428   0.104  0.00  0.00    +0.000 NA
ATOM      6  N   UNL     1      -0.675  -1.369   0.064  0.00  0.00    +0.000 N 
ATOM      7  C   UNL     1      -1.214  -0.100  -0.024  0.00  0.00    +0.000 C 
ATOM      8  O   UNL     1      -2.359   0.317  -0.045  0.00  0.00    +0.000 OA
ATOM      9  C   UNL     1       0.011   0.759  -0.010  0.00  0.00    +0.000 C 
ATOM     10  N   UNL     1       0.129   2.047   0.028  0.00  0.00    +0.000 NA
BRANCH   6  11
ATOM     11  C   UNL     1      -1.395  -2.573   0.001  0.00  0.00    +0.000 A 
ATOM     12  C   UNL     1      -1.193  -3.564   0.960  0.00  0.00    +0.000 A 
ATOM     13  C   UNL     1      -1.881  -4.777   0.873  0.00  0.00    +0.000 A 
ATOM     14  C   UNL     1      -2.814  -5.004  -0.149  0.00  0.00    +0.000 A 
ATOM     15  C   UNL     1      -3.637  -6.263  -0.134  0.00  0.00    +0.000 C 
ATOM     16  C   UNL     1      -2.999  -4.020  -1.138  0.00  0.00    +0.000 A 
ATOM     17  C   UNL     1      -3.882  -4.245  -2.335  0.00  0.00    +0.000 C 
ATOM     18  C   UNL     1      -2.307  -2.798  -1.036  0.00  0.00    +0.000 A 
ENDBRANCH   6  11
ENDBRANCH   1  10
BRANCH   1  19
ATOM     19  C   UNL     1      -0.965   4.182  -0.058  0.00  0.00    +0.000 A 
ATOM     20  C   UNL     1      -1.781   4.974   0.766  0.00  0.00    +0.000 A 
ATOM     21  C   UNL     1      -1.717   6.370   0.720  0.00  0.00    +0.000 A 
ATOM     22  C   UNL     1      -0.848   7.000  -0.171  0.00  0.00    +0.000 A 
ATOM     23  C   UNL     1      -0.023   6.247  -1.029  0.00  0.00    +0.000 A 
ATOM     24  C   UNL     1      -0.089   4.836  -0.947  0.00  0.00    +0.000 A 
BRANCH  23  25
ATOM     25  C   UNL     1       0.810   6.942  -2.027  0.00  0.00    +0.000 A 
ATOM     26  C   UNL     1       1.824   7.834  -1.657  0.00  0.00    +0.000 A 
ATOM     27  C   UNL     1       2.556   8.517  -2.631  0.00  0.00    +0.000 A 
ATOM     28  C   UNL     1       2.347   8.258  -3.989  0.00  0.00    +0.000 A 
ATOM     29  C   UNL     1       1.344   7.372  -4.388  0.00  0.00    +0.000 A 
ATOM     30  C   UNL     1       0.580   6.732  -3.399  0.00  0.00    +0.000 A 
BRANCH  29  31
ATOM     31  C   UNL     1       0.997   7.075  -5.810  0.00  0.00    +0.000 C 
ATOM     32  O   UNL     1       0.098   6.304  -6.105  0.00  0.00    +0.000 OA
BRANCH  31  33
ATOM     33  O   UNL     1       1.718   7.707  -6.758  0.00  0.00    +0.000 OA
ATOM     34  H   UNL     1       2.413   8.322  -6.479  0.00  0.00    +0.000 HD
ENDBRANCH  31  33
ENDBRANCH  29  31
ENDBRANCH  23  25
BRANCH  24  35
ATOM     35  O   UNL     1       0.660   4.045  -1.793  0.00  0.00    +0.000 OA
ATOM     36  H   UNL     1       1.272   4.594  -2.300  0.00  0.00    +0.000 HD
ENDBRANCH  24  35
ENDBRANCH   1  19
TORSDOF 7
