REMARK  Name = Eluxadoline
REMARK  17 active torsions:
REMARK  status: ('A' for Active; 'I' for Inactive)
REMARK    1  A    between atoms: C_1  and  O_2
REMARK    2  A    between atoms: O_2  and  C_3
REMARK    3  A    between atoms: C_6  and  C_7
REMARK    4  A    between atoms: C_7  and  N_8
REMARK    5  A    between atoms: N_8  and  C_9
REMARK    6  A    between atoms: C_9  and  C_10
REMARK    7  A    between atoms: C_9  and  C_11
REMARK    8  A    between atoms: C_13  and  C_16
REMARK    9  A    between atoms: C_22  and  C_24
REMARK   10  A    between atoms: C_24  and  N_25
REMARK   11  A    between atoms: C_24  and  C_26
REMARK   12  A    between atoms: C_26  and  C_27
REMARK   13  A    between atoms: C_28  and  C_29
REMARK   14  A    between atoms: C_31  and  C_35
REMARK   15  A    between atoms: C_33  and  C_34
REMARK   16  A    between atoms: C_39  and  C_40
REMARK   17  A    between atoms: C_40  and  O_41
REMARK                            x       y       z     vdW  Elec       q    Type
REMARK                         _______ _______ _______ _____ _____    ______ ____
ROOT
ATOM      1  N   UNL     1       4.686   0.006   5.970  0.00  0.00    +0.000 N 
ATOM      2  C   UNL     1       5.323   0.097   7.244  0.00  0.00    +0.000 C 
ATOM      3  O   UNL     1       6.392   0.685   7.422  0.00  0.00    +0.000 OA
ENDROOT
BRANCH   1   4
ATOM      4  C   UNL     1       3.370  -0.778   5.788  0.00  0.00    +0.000 C 
ATOM      5  C   UNL     1       2.237  -0.264   6.636  0.00  0.00    +0.000 C 
BRANCH   4   6
ATOM      6  C   UNL     1       2.698  -0.839   4.457  0.00  0.00    +0.000 A 
ATOM      7  N   UNL     1       2.234   0.439   3.728  0.00  0.00    +0.000 NA
ATOM      8  C   UNL     1       1.921   0.243   1.938  0.00  0.00    +0.000 A 
ATOM      9  C   UNL     1       2.160  -1.650   1.594  0.00  0.00    +0.000 A 
ATOM     10  N   UNL     1       2.681  -2.305   3.296  0.00  0.00    +0.000 N 
ATOM     11  H   UNL     1       3.020  -3.218   3.572  0.00  0.00    +0.000 HD
BRANCH   8  12
ATOM     12  C   UNL     1       2.060   1.631   1.299  0.00  0.00    +0.000 A 
ATOM     13  C   UNL     1       0.859   1.910   0.773  0.00  0.00    +0.000 A 
ATOM     14  C   UNL     1       0.890   2.347  -0.542  0.00  0.00    +0.000 A 
ATOM     15  C   UNL     1       2.017   2.931  -1.105  0.00  0.00    +0.000 A 
ATOM     16  C   UNL     1       3.189   2.980  -0.389  0.00  0.00    +0.000 A 
ATOM     17  C   UNL     1       3.173   2.427   0.892  0.00  0.00    +0.000 A 
ENDBRANCH   8  12
ENDBRANCH   4   6
ENDBRANCH   1   4
BRANCH   1  18
ATOM     18  C   UNL     1       5.514   0.644   4.874  0.00  0.00    +0.000 C 
BRANCH  18  22
ATOM     19  C   UNL     1       3.864  -0.334   1.017  0.00  0.00    +0.000 A 
ATOM     20  C   UNL     1       5.021   0.437   0.955  0.00  0.00    +0.000 A 
ATOM     21  C   UNL     1       5.582   0.843   2.240  0.00  0.00    +0.000 A 
ATOM     22  C   UNL     1       5.219   0.273   3.456  0.00  0.00    +0.000 A 
ATOM     23  C   UNL     1       4.625  -0.906   3.276  0.00  0.00    +0.000 A 
ATOM     24  C   UNL     1       3.421  -0.706   2.556  0.00  0.00    +0.000 A 
BRANCH  19  26
ATOM     25  C   UNL     1       1.192  -0.546  -0.471  0.00  0.00    +0.000 C 
ATOM     26  O   UNL     1       2.834  -0.256  -0.266  0.00  0.00    +0.000 OA
ENDBRANCH  19  26
BRANCH  24  27
ATOM     27  C   UNL     1       1.271  -1.094   3.076  0.00  0.00    +0.000 C 
ATOM     28  O   UNL     1       0.241  -1.082   2.314  0.00  0.00    +0.000 OA
BRANCH  27  29
ATOM     29  O   UNL     1       0.666  -1.832   4.133  0.00  0.00    +0.000 OA
ATOM     30  H   UNL     1       1.199  -2.105   4.869  0.00  0.00    +0.000 HD
ENDBRANCH  27  29
ENDBRANCH  24  27
ENDBRANCH  18  22
ENDBRANCH   1  18
BRANCH   2  31
ATOM     31  C   UNL     1       4.696  -0.715   8.379  0.00  0.00    +0.000 C 
BRANCH  31  32
ATOM     32  N   UNL     1       4.708  -2.067   7.896  0.00  0.00    +0.000 NA
ATOM     33  H   UNL     1       5.631  -2.450   7.747  0.00  0.00    +0.000 HD
ATOM     34  H   UNL     1       3.981  -2.480   7.351  0.00  0.00    +0.000 HD
ENDBRANCH  31  32
BRANCH  31  35
ATOM     35  C   UNL     1       5.430  -0.572   9.710  0.00  0.00    +0.000 C 
BRANCH  35  36
ATOM     36  C   UNL     1       4.767  -1.319  10.865  0.00  0.00    +0.000 A 
ATOM     37  C   UNL     1       4.132  -0.634  11.915  0.00  0.00    +0.000 A 
ATOM     38  C   UNL     1       3.709   0.809  11.830  0.00  0.00    +0.000 C 
ATOM     39  C   UNL     1       3.833  -1.342  13.094  0.00  0.00    +0.000 A 
ATOM     40  C   UNL     1       3.914  -2.736  13.157  0.00  0.00    +0.000 A 
ATOM     41  C   UNL     1       4.444  -3.420  12.075  0.00  0.00    +0.000 A 
ATOM     42  C   UNL     1       4.887  -2.728  10.952  0.00  0.00    +0.000 A 
ATOM     43  C   UNL     1       5.404  -3.580   9.842  0.00  0.00    +0.000 C 
BRANCH  40  44
ATOM     44  C   UNL     1       3.396  -3.529  14.306  0.00  0.00    +0.000 C 
ATOM     45  N   UNL     1       2.843  -2.850  15.358  0.00  0.00    +0.000 N 
ATOM     46  O   UNL     1       3.426  -4.755  14.300  0.00  0.00    +0.000 OA
ATOM     47  H   UNL     1       2.754  -1.850  15.417  0.00  0.00    +0.000 HD
ATOM     48  H   UNL     1       2.467  -3.390  16.126  0.00  0.00    +0.000 HD
ENDBRANCH  40  44
ENDBRANCH  35  36
ENDBRANCH  31  35
ENDBRANCH   2  31
TORSDOF 13
