REMARK  Name = Elvitegravir
REMARK  12 active torsions:
REMARK  status: ('A' for Active; 'I' for Inactive)
REMARK    1  A    between atoms: C_2  and  C_3
REMARK    2  A    between atoms: C_2  and  C_5
REMARK    3  A    between atoms: C_2  and  N_8
REMARK    4  A    between atoms: C_3  and  O_4
REMARK    5  A    between atoms: C_5  and  C_6
REMARK    6  A    between atoms: C_5  and  C_7
REMARK    7  A    between atoms: C_10  and  C_11
REMARK    8  A    between atoms: C_11  and  O_12
REMARK    9  A    between atoms: C_19  and  O_20
REMARK   10  A    between atoms: O_20  and  C_21
REMARK   11  A    between atoms: C_22  and  C_23
REMARK   12  A    between atoms: C_23  and  C_24
REMARK                            x       y       z     vdW  Elec       q    Type
REMARK                         _______ _______ _______ _____ _____    ______ ____
ROOT
ATOM      1  N   UNL     1       2.499  -0.512  -1.249  0.00  0.00    +0.000 N 
ATOM      2  C   UNL     1       3.162   0.214  -2.249  0.00  0.00    +0.000 A 
ATOM      3  C   UNL     1       3.441  -0.171  -3.504  0.00  0.00    +0.000 A 
ATOM      4  C   UNL     1       3.139  -1.563  -3.829  0.00  0.00    +0.000 A 
ATOM      5  O   UNL     1       3.429  -2.011  -4.942  0.00  0.00    +0.000 OA
ATOM      6  C   UNL     1       2.545  -2.400  -2.768  0.00  0.00    +0.000 A 
ATOM      7  C   UNL     1       2.194  -1.872  -1.531  0.00  0.00    +0.000 A 
ATOM      8  C   UNL     1       1.610  -2.786  -0.632  0.00  0.00    +0.000 A 
ATOM      9  C   UNL     1       1.736  -4.180  -0.760  0.00  0.00    +0.000 A 
ATOM     10  C   UNL     1       2.133  -4.676  -1.995  0.00  0.00    +0.000 A 
ATOM     11  C   UNL     1       2.386  -3.751  -3.025  0.00  0.00    +0.000 A 
ENDROOT
BRANCH   3  12
ATOM     12  C   UNL     1       4.018   0.795  -4.467  0.00  0.00    +0.000 C 
ATOM     13  O   UNL     1       4.179   1.974  -4.209  0.00  0.00    +0.000 OA
BRANCH  12  14
ATOM     14  O   UNL     1       4.317   0.276  -5.681  0.00  0.00    +0.000 OA
ATOM     15  H   UNL     1       4.124  -0.689  -5.768  0.00  0.00    +0.000 HD
ENDBRANCH  12  14
ENDBRANCH   3  12
BRANCH   9  16
ATOM     16  O   UNL     1       1.452  -4.863   0.396  0.00  0.00    +0.000 OA
ATOM     17  C   UNL     1       1.574  -6.280   0.448  0.00  0.00    +0.000 C 
ENDBRANCH   9  16
BRANCH   1  18
ATOM     18  C   UNL     1       2.070   0.061   0.086  0.00  0.00    +0.000 C 
BRANCH  18  19
ATOM     19  C   UNL     1       2.642  -0.744   1.307  0.00  0.00    +0.000 C 
ATOM     20  C   UNL     1       4.162  -0.819   1.298  0.00  0.00    +0.000 C 
ATOM     21  C   UNL     1       2.060  -0.271   2.639  0.00  0.00    +0.000 C 
ENDBRANCH  18  19
BRANCH  18  22
ATOM     22  C   UNL     1       2.466   1.560   0.260  0.00  0.00    +0.000 C 
BRANCH  22  23
ATOM     23  O   UNL     1       1.805   2.461  -0.623  0.00  0.00    +0.000 OA
ATOM     24  H   UNL     1       1.935   2.180  -1.541  0.00  0.00    +0.000 HD
ENDBRANCH  22  23
ENDBRANCH  18  22
ENDBRANCH   1  18
BRANCH  10  25
ATOM     25  C   UNL     1       2.310  -6.145  -2.260  0.00  0.00    +0.000 C 
BRANCH  25  26
ATOM     26  C   UNL     1       2.742  -6.524  -3.632  0.00  0.00    +0.000 A 
ATOM     27  C   UNL     1       3.995  -6.118  -4.102  0.00  0.00    +0.000 A 
ATOM     28  F   UNL     1       4.803  -5.409  -3.294  0.00  0.00    +0.000 F 
ATOM     29  C   UNL     1       4.335  -6.337  -5.420  0.00  0.00    +0.000 A 
ATOM     30 CL   UNL     1       5.902  -5.926  -5.985  0.00  0.00    +0.000 Cl
ATOM     31  C   UNL     1       3.379  -6.871  -6.285  0.00  0.00    +0.000 A 
ATOM     32  C   UNL     1       2.116  -7.247  -5.816  0.00  0.00    +0.000 A 
ATOM     33  C   UNL     1       1.836  -7.177  -4.465  0.00  0.00    +0.000 A 
ENDBRANCH  25  26
ENDBRANCH  10  25
TORSDOF 9
