REMARK  Name = Emedastine
REMARK  6 active torsions:
REMARK  status: ('A' for Active; 'I' for Inactive)
REMARK    1  A    between atoms: C_1  and  C_2
REMARK    2  A    between atoms: C_2  and  O_3
REMARK    3  A    between atoms: O_3  and  C_4
REMARK    4  A    between atoms: C_4  and  C_5
REMARK    5  A    between atoms: C_5  and  N_6
REMARK    6  A    between atoms: N_19  and  C_20
REMARK                            x       y       z     vdW  Elec       q    Type
REMARK                         _______ _______ _______ _____ _____    ______ ____
ROOT
ATOM      1  N   UNL     1       6.317   2.116  -1.864  0.00  0.00    +0.000 N 
ATOM      2  C   UNL     1       7.101   1.583  -2.869  0.00  0.00    +0.000 A 
ATOM      3  N   UNL     1       8.377   1.664  -2.530  0.00  0.00    +0.000 NA
ATOM      4  C   UNL     1       8.417   2.322  -1.313  0.00  0.00    +0.000 A 
ATOM      5  C   UNL     1       9.506   2.716  -0.509  0.00  0.00    +0.000 A 
ATOM      6  C   UNL     1       9.261   3.342   0.727  0.00  0.00    +0.000 A 
ATOM      7  C   UNL     1       7.957   3.568   1.166  0.00  0.00    +0.000 A 
ATOM      8  C   UNL     1       6.865   3.198   0.378  0.00  0.00    +0.000 A 
ATOM      9  C   UNL     1       7.132   2.592  -0.859  0.00  0.00    +0.000 A 
ATOM     10  N   UNL     1       6.540   0.997  -3.963  0.00  0.00    +0.000 N 
ATOM     11  C   UNL     1       6.908  -0.365  -4.347  0.00  0.00    +0.000 C 
ATOM     12  C   UNL     1       7.603  -0.472  -5.705  0.00  0.00    +0.000 C 
ATOM     13  C   UNL     1       6.648  -0.177  -6.868  0.00  0.00    +0.000 C 
ATOM     14  N   UNL     1       6.593   1.230  -7.287  0.00  0.00    +0.000 NA
ATOM     15  C   UNL     1       7.691   1.528  -8.211  0.00  0.00    +0.000 C 
ATOM     16  C   UNL     1       6.625   2.190  -6.160  0.00  0.00    +0.000 C 
ATOM     17  C   UNL     1       5.778   1.800  -4.933  0.00  0.00    +0.000 C 
ENDROOT
BRANCH   1  18
ATOM     18  C   UNL     1       4.874   2.075  -1.778  0.00  0.00    +0.000 C 
BRANCH  18  19
ATOM     19  C   UNL     1       4.393   0.948  -0.883  0.00  0.00    +0.000 C 
BRANCH  19  20
ATOM     20  O   UNL     1       2.964   0.945  -0.874  0.00  0.00    +0.000 OA
BRANCH  20  22
ATOM     21  C   UNL     1       0.960  -0.077  -0.055  0.00  0.00    +0.000 C 
ATOM     22  C   UNL     1       2.473  -0.099  -0.037  0.00  0.00    +0.000 C 
ENDBRANCH  20  22
ENDBRANCH  19  20
ENDBRANCH  18  19
ENDBRANCH   1  18
TORSDOF 4
