REMARK  Name = Empagliflozin
REMARK  10 active torsions:
REMARK  status: ('A' for Active; 'I' for Inactive)
REMARK    1  A    between atoms: O_1  and  C_2
REMARK    2  A    between atoms: C_2  and  C_3
REMARK    3  A    between atoms: C_5  and  C_12
REMARK    4  A    between atoms: C_6  and  O_7
REMARK    5  A    between atoms: C_8  and  O_9
REMARK    6  A    between atoms: C_10  and  O_11
REMARK    7  A    between atoms: C_17  and  C_18
REMARK    8  A    between atoms: C_18  and  C_19
REMARK    9  A    between atoms: C_22  and  O_23
REMARK   10  A    between atoms: O_23  and  C_24
REMARK                            x       y       z     vdW  Elec       q    Type
REMARK                         _______ _______ _______ _____ _____    ______ ____
ROOT
ATOM      1  C   UNL     1     -12.187   9.930   0.666  0.00  0.00    +0.000 A 
ATOM      2  C   UNL     1     -12.346  10.804   1.744  0.00  0.00    +0.000 A 
ATOM      3  C   UNL     1     -11.538  10.690   2.857  0.00  0.00    +0.000 A 
ATOM      4  C   UNL     1     -10.523   9.737   2.892  0.00  0.00    +0.000 A 
ATOM      5 CL   UNL     1      -9.424   9.997   4.201  0.00  0.00    +0.000 Cl
ATOM      6  C   UNL     1     -10.410   8.760   1.878  0.00  0.00    +0.000 A 
ATOM      7  C   UNL     1     -11.241   8.900   0.746  0.00  0.00    +0.000 A 
ENDROOT
BRANCH   1  10
ATOM      8  C   UNL     1     -13.584  11.689  -2.234  0.00  0.00    +0.000 C 
ATOM      9  O   UNL     1     -12.812  11.392  -1.071  0.00  0.00    +0.000 OA
ATOM     10  C   UNL     1     -13.068  10.087  -0.547  0.00  0.00    +0.000 C 
ATOM     11  C   UNL     1     -14.546   9.898  -0.152  0.00  0.00    +0.000 C 
ATOM     12  C   UNL     1     -15.440  10.235  -1.348  0.00  0.00    +0.000 C 
ATOM     13  C   UNL     1     -15.090  11.621  -1.936  0.00  0.00    +0.000 C 
BRANCH  11  14
ATOM     14  O   UNL     1     -14.798   8.564   0.313  0.00  0.00    +0.000 OA
ATOM     15  H   UNL     1     -14.574   7.934  -0.392  0.00  0.00    +0.000 HD
ENDBRANCH  11  14
BRANCH  12  16
ATOM     16  O   UNL     1     -16.821  10.178  -0.970  0.00  0.00    +0.000 OA
ATOM     17  H   UNL     1     -16.954  10.785  -0.220  0.00  0.00    +0.000 HD
ENDBRANCH  12  16
BRANCH  13  18
ATOM     18  O   UNL     1     -15.833  11.841  -3.141  0.00  0.00    +0.000 OA
ATOM     19  H   UNL     1     -15.761  11.048  -3.700  0.00  0.00    +0.000 HD
ENDBRANCH  13  18
BRANCH   8  20
ATOM     20  C   UNL     1     -13.121  13.018  -2.865  0.00  0.00    +0.000 C 
BRANCH  20  21
ATOM     21  O   UNL     1     -13.000  14.102  -1.952  0.00  0.00    +0.000 OA
ATOM     22  H   UNL     1     -12.577  14.825  -2.453  0.00  0.00    +0.000 HD
ENDBRANCH  20  21
ENDBRANCH   8  20
ENDBRANCH   1  10
BRANCH   6  23
ATOM     23  C   UNL     1      -9.505   7.538   1.867  0.00  0.00    +0.000 C 
BRANCH  23  24
ATOM     24  C   UNL     1      -8.833   7.184   3.163  0.00  0.00    +0.000 A 
ATOM     25  C   UNL     1      -7.448   7.269   3.259  0.00  0.00    +0.000 A 
ATOM     26  C   UNL     1      -6.852   7.069   4.491  0.00  0.00    +0.000 A 
ATOM     27  C   UNL     1      -7.588   6.977   5.697  0.00  0.00    +0.000 A 
ATOM     28  C   UNL     1      -8.979   6.878   5.595  0.00  0.00    +0.000 A 
ATOM     29  C   UNL     1      -9.578   6.907   4.323  0.00  0.00    +0.000 A 
BRANCH  27  30
ATOM     30  O   UNL     1      -7.008   7.142   6.976  0.00  0.00    +0.000 OA
BRANCH  30  31
ATOM     31  C   UNL     1      -5.720   7.738   6.813  0.00  0.00    +0.000 C 
ATOM     32  C   UNL     1      -5.902   9.159   6.298  0.00  0.00    +0.000 C 
ATOM     33  C   UNL     1      -4.488   9.534   6.014  0.00  0.00    +0.000 C 
ATOM     34  O   UNL     1      -3.738   8.981   7.112  0.00  0.00    +0.000 OA
ATOM     35  C   UNL     1      -4.604   8.023   7.821  0.00  0.00    +0.000 C 
ENDBRANCH  30  31
ENDBRANCH  27  30
ENDBRANCH  23  24
ENDBRANCH   6  23
TORSDOF 10
