REMARK  Name = Emtricitabine
REMARK  3 active torsions:
REMARK  status: ('A' for Active; 'I' for Inactive)
REMARK    1  A    between atoms: N_6  and  C_10
REMARK    2  A    between atoms: C_13  and  C_14
REMARK    3  A    between atoms: C_14  and  O_15
REMARK                            x       y       z     vdW  Elec       q    Type
REMARK                         _______ _______ _______ _____ _____    ______ ____
ROOT
ATOM      1  N   UNL     1       8.276   5.456  -0.005  0.00  0.00    +0.000 N 
ATOM      2  C   UNL     1       7.890   4.146  -0.024  0.00  0.00    +0.000 A 
ATOM      3  N   UNL     1       8.820   3.240  -0.017  0.00  0.00    +0.000 NA
ATOM      4  C   UNL     1       8.488   1.901  -0.025  0.00  0.00    +0.000 A 
ATOM      5  O   UNL     1       9.375   1.050  -0.001  0.00  0.00    +0.000 OA
ATOM      6  N   UNL     1       7.128   1.541  -0.018  0.00  0.00    +0.000 N 
ATOM      7  C   UNL     1       6.138   2.504  -0.032  0.00  0.00    +0.000 A 
ATOM      8  C   UNL     1       6.454   3.794  -0.042  0.00  0.00    +0.000 A 
ATOM      9  F   UNL     1       5.554   4.792  -0.049  0.00  0.00    +0.000 F 
ATOM     10  H   UNL     1       9.265   5.672  -0.026  0.00  0.00    +0.000 HD
ATOM     11  H   UNL     1       7.608   6.213  -0.046  0.00  0.00    +0.000 HD
ENDROOT
BRANCH   6  12
ATOM     12  C   UNL     1       6.766   0.124   0.018  0.00  0.00    +0.000 C 
ATOM     13  C   UNL     1       7.265  -0.617   1.262  0.00  0.00    +0.000 C 
ATOM     14  S   UNL     1       7.145  -2.346   0.783  0.00  0.00    +0.000 S 
ATOM     15  C   UNL     1       7.253  -1.939  -0.981  0.00  0.00    +0.000 C 
ATOM     16  O   UNL     1       7.253  -0.516  -1.165  0.00  0.00    +0.000 OA
BRANCH  15  17
ATOM     17  C   UNL     1       8.508  -2.557  -1.624  0.00  0.00    +0.000 C 
BRANCH  17  18
ATOM     18  O   UNL     1       8.578  -2.306  -3.032  0.00  0.00    +0.000 OA
ATOM     19  H   UNL     1       7.747  -2.603  -3.435  0.00  0.00    +0.000 HD
ENDBRANCH  17  18
ENDBRANCH  15  17
ENDBRANCH   6  12
TORSDOF 3
