REMARK  Name = Enalapril
REMARK  13 active torsions:
REMARK  status: ('A' for Active; 'I' for Inactive)
REMARK    1  A    between atoms: C_1  and  C_2
REMARK    2  A    between atoms: C_2  and  O_3
REMARK    3  A    between atoms: O_3  and  C_4
REMARK    4  A    between atoms: C_4  and  C_6
REMARK    5  A    between atoms: C_6  and  C_7
REMARK    6  A    between atoms: C_6  and  N_15
REMARK    7  A    between atoms: C_7  and  C_8
REMARK    8  A    between atoms: C_8  and  C_9
REMARK    9  A    between atoms: N_15  and  CA_16
REMARK   10  A    between atoms: CA_16  and  CB_17
REMARK   11  A    between atoms: CA_16  and  C_18
REMARK   12  A    between atoms: CA_24  and  C_25
REMARK   13  A    between atoms: C_25  and  O_26
REMARK                            x       y       z     vdW  Elec       q    Type
REMARK                         _______ _______ _______ _____ _____    ______ ____
ROOT
ATOM      1  N   ALA A   1       6.451   1.683   2.686  0.00  0.00    +0.000 NA
ATOM      2  H   ALA A   1       6.800   2.055   1.797  0.00  0.00    +0.000 HD
ENDROOT
BRANCH   1   3
ATOM      3  CA  ALA A   1       7.014   2.590   3.713  0.00  0.00    +0.000 C 
ATOM      4  CB  ALA A   1       6.493   2.142   5.009  0.00  0.00    +0.000 C 
BRANCH   3   5
ATOM      5  C   ALA A   1       8.562   2.506   3.746  0.00  0.00    +0.000 C 
ATOM      6  O   ALA A   1       9.217   2.098   2.783  0.00  0.00    +0.000 OA
ATOM      7  N   PRO A   2       9.246   3.055   4.820  0.00  0.00    +0.000 N 
ATOM      8  CD  PRO A   2       9.024   3.013   6.263  0.00  0.00    +0.000 C 
ATOM      9  CG  PRO A   2       9.162   4.460   6.666  0.00  0.00    +0.000 C 
ATOM     10  CB  PRO A   2      10.389   4.862   5.856  0.00  0.00    +0.000 C 
ATOM     11  CA  PRO A   2      10.308   4.031   4.551  0.00  0.00    +0.000 C 
BRANCH  11  12
ATOM     12  C   PRO A   2      11.675   3.393   4.266  0.00  0.00    +0.000 C 
ATOM     13  OXT PRO A   2      12.686   4.047   4.091  0.00  0.00    +0.000 OA
BRANCH  12  14
ATOM     14  O   PRO A   2      11.687   2.037   4.288  0.00  0.00    +0.000 OA
ATOM     15  H   PRO A   2      10.778   1.669   4.279  0.00  0.00    +0.000 HD
ENDBRANCH  12  14
ENDBRANCH  11  12
ENDBRANCH   3   5
ENDBRANCH   1   3
BRANCH   1  16
ATOM     16  C   UNK A   0       4.955   1.553   2.624  0.00  0.00    +0.000 C 
BRANCH  16  17
ATOM     17  C   UNK A   0       4.219   0.729   3.785  0.00  0.00    +0.000 C 
ATOM     18  O   UNK A   0       3.004   0.663   3.861  0.00  0.00    +0.000 OA
BRANCH  17  19
ATOM     19  O   UNK A   0       5.049   0.159   4.724  0.00  0.00    +0.000 OA
BRANCH  19  21
ATOM     20  C   UNK A   0       5.702   0.349   7.174  0.00  0.00    +0.000 C 
ATOM     21  C   UNK A   0       4.596   0.060   6.117  0.00  0.00    +0.000 C 
ENDBRANCH  19  21
ENDBRANCH  17  19
ENDBRANCH  16  17
BRANCH  16  22
ATOM     22  C   UNK A   0       4.503   0.897   1.304  0.00  0.00    +0.000 C 
BRANCH  22  23
ATOM     23  C   UNK A   0       5.583   0.781   0.219  0.00  0.00    +0.000 C 
BRANCH  23  24
ATOM     24  C   UNK A   0       5.027   0.020  -0.945  0.00  0.00    +0.000 A 
ATOM     25  C   UNK A   0       4.522   0.695  -2.058  0.00  0.00    +0.000 A 
ATOM     26  C   UNK A   0       3.772  -0.003  -2.997  0.00  0.00    +0.000 A 
ATOM     27  C   UNK A   0       3.606  -1.384  -2.873  0.00  0.00    +0.000 A 
ATOM     28  C   UNK A   0       4.167  -2.069  -1.797  0.00  0.00    +0.000 A 
ATOM     29  C   UNK A   0       4.876  -1.367  -0.832  0.00  0.00    +0.000 A 
ENDBRANCH  23  24
ENDBRANCH  22  23
ENDBRANCH  16  22
ENDBRANCH   1  16
TORSDOF 11
