REMARK  Name = Enalaprilat
REMARK  11 active torsions:
REMARK  status: ('A' for Active; 'I' for Inactive)
REMARK    1  A    between atoms: C_2  and  C_3
REMARK    2  A    between atoms: C_2  and  N_4
REMARK    3  A    between atoms: C_2  and  C_18
REMARK    4  A    between atoms: N_4  and  C_5
REMARK    5  A    between atoms: C_5  and  C_7
REMARK    6  A    between atoms: C_5  and  C_15
REMARK    7  A    between atoms: C_7  and  C_8
REMARK    8  A    between atoms: C_8  and  C_9
REMARK    9  A    between atoms: C_15  and  O_16
REMARK   10  A    between atoms: CA_24  and  C_26
REMARK   11  A    between atoms: C_26  and  O_27
REMARK                            x       y       z     vdW  Elec       q    Type
REMARK                         _______ _______ _______ _____ _____    ______ ____
ROOT
ATOM      1  N   UNK A   1       2.597  -1.503  -0.116  0.00  0.00    +0.000 NA
ATOM      2  H   UNK A   1       3.579  -1.560   0.122  0.00  0.00    +0.000 HD
ENDROOT
BRANCH   1   3
ATOM      3  C   UNK A   1       2.276  -0.053  -0.066  0.00  0.00    +0.000 C 
ATOM      4  C   UNK A   1       2.636   0.626   1.260  0.00  0.00    +0.000 C 
BRANCH   3   5
ATOM      5  C   UNK A   1       2.757   0.759  -1.249  0.00  0.00    +0.000 C 
ATOM      6  O   UNK A   1       1.975   1.429  -1.929  0.00  0.00    +0.000 OA
ATOM      7  N   PRO A   2       4.084   0.857  -1.485  0.00  0.00    +0.000 N 
ATOM      8  CD  PRO A   2       5.094  -0.155  -1.358  0.00  0.00    +0.000 C 
ATOM      9  CG  PRO A   2       6.234   0.596  -0.742  0.00  0.00    +0.000 C 
ATOM     10  CB  PRO A   2       6.172   1.924  -1.491  0.00  0.00    +0.000 C 
ATOM     11  CA  PRO A   2       4.680   2.154  -1.795  0.00  0.00    +0.000 C 
BRANCH  11  12
ATOM     12  C   PRO A   2       4.490   2.602  -3.252  0.00  0.00    +0.000 C 
ATOM     13  OXT PRO A   2       4.995   3.619  -3.701  0.00  0.00    +0.000 OA
BRANCH  12  14
ATOM     14  O   PRO A   2       3.759   1.765  -4.027  0.00  0.00    +0.000 OA
ATOM     15  H   PRO A   2       3.266   1.109  -3.489  0.00  0.00    +0.000 HD
ENDBRANCH  12  14
ENDBRANCH  11  12
ENDBRANCH   3   5
ENDBRANCH   1   3
BRANCH   1  16
ATOM     16  C   UNK A   1       1.993  -2.277   1.005  0.00  0.00    +0.000 C 
BRANCH  16  17
ATOM     17  C   UNK A   1       2.492  -3.746   0.955  0.00  0.00    +0.000 C 
ATOM     18  O   UNK A   1       2.240  -4.574   1.805  0.00  0.00    +0.000 OA
BRANCH  17  19
ATOM     19  O   UNK A   1       3.295  -4.020  -0.109  0.00  0.00    +0.000 OA
ATOM     20  H   UNK A   1       3.283  -3.282  -0.751  0.00  0.00    +0.000 HD
ENDBRANCH  17  19
ENDBRANCH  16  17
BRANCH  16  21
ATOM     21  C   UNK A   1       0.473  -2.274   1.054  0.00  0.00    +0.000 C 
BRANCH  21  22
ATOM     22  C   UNK A   1      -0.207  -0.922   1.288  0.00  0.00    +0.000 C 
BRANCH  22  23
ATOM     23  C   UNK A   1      -1.686  -0.911   1.317  0.00  0.00    +0.000 A 
ATOM     24  C   UNK A   1      -2.341   0.331   1.297  0.00  0.00    +0.000 A 
ATOM     25  C   UNK A   1      -3.716   0.361   1.412  0.00  0.00    +0.000 A 
ATOM     26  C   UNK A   1      -4.423  -0.842   1.439  0.00  0.00    +0.000 A 
ATOM     27  C   UNK A   1      -3.767  -2.068   1.360  0.00  0.00    +0.000 A 
ATOM     28  C   UNK A   1      -2.395  -2.102   1.294  0.00  0.00    +0.000 A 
ENDBRANCH  22  23
ENDBRANCH  21  22
ENDBRANCH  16  21
ENDBRANCH   1  16
TORSDOF 10
