REMARK  Name = Enasidenib
REMARK  9 active torsions:
REMARK  status: ('A' for Active; 'I' for Inactive)
REMARK    1  A    between atoms: C_1  and  C_2
REMARK    2  A    between atoms: C_2  and  C_3
REMARK    3  A    between atoms: C_2  and  O_4
REMARK    4  A    between atoms: C_2  and  C_5
REMARK    5  A    between atoms: C_5  and  N_6
REMARK    6  A    between atoms: C_9  and  C_24
REMARK    7  A    between atoms: N_12  and  C_13
REMARK    8  A    between atoms: C_15  and  C_19
REMARK    9  A    between atoms: C_26  and  C_30
REMARK                            x       y       z     vdW  Elec       q    Type
REMARK                         _______ _______ _______ _____ _____    ______ ____
ROOT
ATOM      1  N   UNL     1       4.575  -0.226   1.485  0.00  0.00    +0.000 N 
ATOM      2  C   UNL     1       5.203  -0.219   2.721  0.00  0.00    +0.000 A 
ATOM      3  N   UNL     1       4.825  -1.093   3.628  0.00  0.00    +0.000 NA
ATOM      4  C   UNL     1       5.574  -1.125   4.735  0.00  0.00    +0.000 A 
ATOM      5  N   UNL     1       6.625  -0.338   4.981  0.00  0.00    +0.000 NA
ATOM      6  C   UNL     1       6.897   0.534   4.021  0.00  0.00    +0.000 A 
ATOM      7  N   UNL     1       7.993   1.378   4.212  0.00  0.00    +0.000 N 
ATOM      8  N   UNL     1       6.225   0.606   2.867  0.00  0.00    +0.000 NA
ATOM      9  H   UNL     1       5.015   0.465   0.886  0.00  0.00    +0.000 HD
ATOM     10  H   UNL     1       8.483   1.199   5.077  0.00  0.00    +0.000 HD
ENDROOT
BRANCH   7  11
ATOM     11  C   UNL     1       8.395   2.474   3.440  0.00  0.00    +0.000 A 
ATOM     12  C   UNL     1       7.484   3.446   3.017  0.00  0.00    +0.000 A 
ATOM     13  C   UNL     1       7.920   4.512   2.228  0.00  0.00    +0.000 A 
ATOM     14  N   UNL     1       9.218   4.615   1.821  0.00  0.00    +0.000 NA
ATOM     15  C   UNL     1      10.077   3.654   2.219  0.00  0.00    +0.000 A 
ATOM     16  C   UNL     1       9.721   2.591   3.032  0.00  0.00    +0.000 A 
BRANCH  13  17
ATOM     17  C   UNL     1       6.936   5.600   1.824  0.00  0.00    +0.000 C 
ATOM     18  F   UNL     1       7.290   6.834   2.290  0.00  0.00    +0.000 F 
ATOM     19  F   UNL     1       6.803   5.733   0.473  0.00  0.00    +0.000 F 
ATOM     20  F   UNL     1       5.669   5.391   2.294  0.00  0.00    +0.000 F 
ENDBRANCH  13  17
ENDBRANCH   7  11
BRANCH   4  21
ATOM     21  C   UNL     1       5.166  -2.123   5.739  0.00  0.00    +0.000 A 
ATOM     22  N   UNL     1       4.726  -1.641   6.932  0.00  0.00    +0.000 NA
ATOM     23  C   UNL     1       4.170  -2.511   7.826  0.00  0.00    +0.000 A 
ATOM     24  C   UNL     1       4.059  -3.875   7.556  0.00  0.00    +0.000 A 
ATOM     25  C   UNL     1       4.545  -4.367   6.350  0.00  0.00    +0.000 A 
ATOM     26  C   UNL     1       5.102  -3.484   5.430  0.00  0.00    +0.000 A 
BRANCH  23  27
ATOM     27  C   UNL     1       3.645  -1.956   9.142  0.00  0.00    +0.000 C 
ATOM     28  F   UNL     1       4.616  -1.364   9.894  0.00  0.00    +0.000 F 
ATOM     29  F   UNL     1       2.669  -1.018   8.975  0.00  0.00    +0.000 F 
ATOM     30  F   UNL     1       3.094  -2.912   9.948  0.00  0.00    +0.000 F 
ENDBRANCH  23  27
ENDBRANCH   4  21
BRANCH   1  31
ATOM     31  C   UNL     1       3.118  -0.094   1.521  0.00  0.00    +0.000 C 
BRANCH  31  33
ATOM     32  C   UNL     1       1.039   0.081   0.074  0.00  0.00    +0.000 C 
ATOM     33  C   UNL     1       2.570   0.036   0.072  0.00  0.00    +0.000 C 
ATOM     34  C   UNL     1       3.052  -1.128  -0.797  0.00  0.00    +0.000 C 
BRANCH  33  35
ATOM     35  O   UNL     1       3.056   1.262  -0.497  0.00  0.00    +0.000 OA
ATOM     36  H   UNL     1       2.698   1.336  -1.399  0.00  0.00    +0.000 HD
ENDBRANCH  33  35
ENDBRANCH  31  33
ENDBRANCH   1  31
TORSDOF 7
