REMARK  Name = Encainide
REMARK  8 active torsions:
REMARK  status: ('A' for Active; 'I' for Inactive)
REMARK    1  A    between atoms: C_1  and  O_2
REMARK    2  A    between atoms: O_2  and  C_3
REMARK    3  A    between atoms: C_6  and  C_9
REMARK    4  A    between atoms: N_11  and  C_12
REMARK    5  A    between atoms: C_17  and  C_18
REMARK    6  A    between atoms: C_18  and  C_19
REMARK    7  A    between atoms: C_19  and  C_20
REMARK    8  A    between atoms: N_25  and  C_26
REMARK                            x       y       z     vdW  Elec       q    Type
REMARK                         _______ _______ _______ _____ _____    ______ ____
ROOT
ATOM      1  C   UNL     1       6.121  -4.845   5.192  0.00  0.00    +0.000 A 
ATOM      2  C   UNL     1       6.115  -6.250   5.222  0.00  0.00    +0.000 A 
ATOM      3  C   UNL     1       6.623  -6.971   6.315  0.00  0.00    +0.000 A 
ATOM      4  C   UNL     1       7.171  -6.312   7.407  0.00  0.00    +0.000 A 
ATOM      5  C   UNL     1       7.147  -4.928   7.441  0.00  0.00    +0.000 A 
ATOM      6  C   UNL     1       6.611  -4.173   6.371  0.00  0.00    +0.000 A 
ENDROOT
BRANCH   1   9
ATOM      7  C   UNL     1       5.915  -3.286   3.133  0.00  0.00    +0.000 C 
ATOM      8  O   UNL     1       7.091  -3.033   2.954  0.00  0.00    +0.000 OA
ATOM      9  N   UNL     1       5.437  -4.263   4.046  0.00  0.00    +0.000 N 
ATOM     10  H   UNL     1       4.498  -4.604   3.922  0.00  0.00    +0.000 HD
BRANCH   7  14
ATOM     11  C   UNL     1       3.091  -0.734   0.995  0.00  0.00    +0.000 A 
ATOM     12  C   UNL     1       4.346  -0.268   1.342  0.00  0.00    +0.000 A 
ATOM     13  C   UNL     1       5.255  -1.131   1.970  0.00  0.00    +0.000 A 
ATOM     14  C   UNL     1       4.888  -2.427   2.399  0.00  0.00    +0.000 A 
ATOM     15  C   UNL     1       3.573  -2.819   2.176  0.00  0.00    +0.000 A 
ATOM     16  C   UNL     1       2.695  -1.996   1.442  0.00  0.00    +0.000 A 
BRANCH  11  18
ATOM     17  C   UNL     1       1.002  -0.051   0.103  0.00  0.00    +0.000 C 
ATOM     18  O   UNL     1       2.410   0.083   0.142  0.00  0.00    +0.000 OA
ENDBRANCH  11  18
ENDBRANCH   7  14
ENDBRANCH   1   9
BRANCH   6  19
ATOM     19  C   UNL     1       6.604  -2.678   6.704  0.00  0.00    +0.000 C 
BRANCH  19  20
ATOM     20  C   UNL     1       5.899  -1.972   5.613  0.00  0.00    +0.000 C 
BRANCH  20  21
ATOM     21  C   UNL     1       5.880  -0.482   5.458  0.00  0.00    +0.000 C 
ATOM     22  C   UNL     1       7.227  -0.027   4.818  0.00  0.00    +0.000 C 
ATOM     23  C   UNL     1       7.217   1.480   4.671  0.00  0.00    +0.000 C 
ATOM     24  C   UNL     1       6.026   1.917   3.829  0.00  0.00    +0.000 C 
ATOM     25  C   UNL     1       4.714   1.362   4.392  0.00  0.00    +0.000 C 
ATOM     26  N   UNL     1       4.759  -0.085   4.578  0.00  0.00    +0.000 NA
ATOM     27  C   UNL     1       3.440  -0.603   4.952  0.00  0.00    +0.000 C 
ENDBRANCH  20  21
ENDBRANCH  19  20
ENDBRANCH   6  19
TORSDOF 6
