REMARK  Name = Encorafenib
REMARK  14 active torsions:
REMARK  status: ('A' for Active; 'I' for Inactive)
REMARK    1  A    between atoms: C_1  and  O_2
REMARK    2  A    between atoms: O_2  and  C_3
REMARK    3  A    between atoms: N_5  and  C_6
REMARK    4  A    between atoms: C_6  and  C_7
REMARK    5  A    between atoms: C_6  and  C_8
REMARK    6  A    between atoms: C_8  and  N_9
REMARK    7  A    between atoms: C_14  and  C_16
REMARK    8  A    between atoms: N_18  and  C_34
REMARK    9  A    between atoms: C_20  and  C_21
REMARK   10  A    between atoms: C_26  and  N_27
REMARK   11  A    between atoms: N_27  and  S_28
REMARK   12  A    between atoms: S_28  and  C_29
REMARK   13  A    between atoms: C_34  and  C_35
REMARK   14  A    between atoms: C_34  and  C_36
REMARK                            x       y       z     vdW  Elec       q    Type
REMARK                         _______ _______ _______ _____ _____    ______ ____
ROOT
ATOM      1  C   UNL     1      11.560  -0.427   2.364  0.00  0.00    +0.000 A 
ATOM      2  C   UNL     1      12.477   0.158   1.533  0.00  0.00    +0.000 A 
ATOM      3  N   UNL     1      12.892   1.298   2.159  0.00  0.00    +0.000 N 
ATOM      4  N   UNL     1      12.281   1.504   3.347  0.00  0.00    +0.000 NA
ATOM      5  C   UNL     1      11.487   0.432   3.494  0.00  0.00    +0.000 A 
ENDROOT
BRANCH   1  11
ATOM      6  N   UNL     1       7.503  -2.733   2.129  0.00  0.00    +0.000 N 
ATOM      7  C   UNL     1       8.879  -2.757   1.958  0.00  0.00    +0.000 A 
ATOM      8  N   UNL     1       9.485  -3.945   1.781  0.00  0.00    +0.000 NA
ATOM      9  C   UNL     1      10.837  -3.947   1.697  0.00  0.00    +0.000 A 
ATOM     10  C   UNL     1      11.603  -2.821   1.850  0.00  0.00    +0.000 A 
ATOM     11  C   UNL     1      10.887  -1.668   2.072  0.00  0.00    +0.000 A 
ATOM     12  N   UNL     1       9.543  -1.611   2.099  0.00  0.00    +0.000 NA
ATOM     13  H   UNL     1       7.156  -3.681   2.190  0.00  0.00    +0.000 HD
BRANCH   6  14
ATOM     14  C   UNL     1       6.765  -1.791   1.271  0.00  0.00    +0.000 C 
BRANCH  14  15
ATOM     15  C   UNL     1       5.220  -2.025   1.353  0.00  0.00    +0.000 C 
ATOM     16  C   UNL     1       4.883  -3.419   0.801  0.00  0.00    +0.000 C 
BRANCH  15  19
ATOM     17  C   UNL     1       3.035  -1.005   0.713  0.00  0.00    +0.000 C 
ATOM     18  O   UNL     1       2.364  -1.821   1.346  0.00  0.00    +0.000 OA
ATOM     19  N   UNL     1       4.409  -1.006   0.658  0.00  0.00    +0.000 N 
ATOM     20  H   UNL     1       4.843  -0.259   0.130  0.00  0.00    +0.000 HD
BRANCH  17  22
ATOM     21  C   UNL     1       1.054  -0.004  -0.039  0.00  0.00    +0.000 C 
ATOM     22  O   UNL     1       2.494  -0.007  -0.035  0.00  0.00    +0.000 OA
ENDBRANCH  17  22
ENDBRANCH  15  19
ENDBRANCH  14  15
ENDBRANCH   6  14
ENDBRANCH   1  11
BRANCH   5  23
ATOM     23  C   UNL     1      10.736   0.180   4.708  0.00  0.00    +0.000 A 
ATOM     24  C   UNL     1       9.712   1.015   5.129  0.00  0.00    +0.000 A 
ATOM     25  C   UNL     1       8.973   0.652   6.253  0.00  0.00    +0.000 A 
ATOM     26 CL   UNL     1       7.712   1.698   6.785  0.00  0.00    +0.000 Cl
ATOM     27  C   UNL     1       9.226  -0.551   6.940  0.00  0.00    +0.000 A 
ATOM     28  C   UNL     1      10.260  -1.400   6.518  0.00  0.00    +0.000 A 
ATOM     29  C   UNL     1      11.013  -0.992   5.413  0.00  0.00    +0.000 A 
ATOM     30  F   UNL     1      12.035  -1.731   4.964  0.00  0.00    +0.000 F 
BRANCH  28  31
ATOM     31  N   UNL     1      10.391  -2.699   7.127  0.00  0.00    +0.000 N 
ATOM     32  H   UNL     1       9.900  -2.904   7.998  0.00  0.00    +0.000 HD
BRANCH  31  33
ATOM     33  S   UNL     1      11.648  -3.771   6.803  0.00  0.00    +0.000 S 
ATOM     34  C   UNL     1      11.263  -4.361   5.153  0.00  0.00    +0.000 C 
ATOM     35  O   UNL     1      12.911  -3.069   6.814  0.00  0.00    +0.000 OA
ATOM     36  O   UNL     1      11.446  -4.894   7.698  0.00  0.00    +0.000 OA
ENDBRANCH  31  33
ENDBRANCH  28  31
ENDBRANCH   5  23
BRANCH   3  37
ATOM     37  C   UNL     1      13.863   2.270   1.656  0.00  0.00    +0.000 C 
ATOM     38  C   UNL     1      15.065   2.407   2.590  0.00  0.00    +0.000 C 
ATOM     39  C   UNL     1      14.356   1.912   0.249  0.00  0.00    +0.000 C 
ENDBRANCH   3  37
TORSDOF 9
