REMARK  Name = Enoximone
REMARK  5 active torsions:
REMARK  status: ('A' for Active; 'I' for Inactive)
REMARK    1  A    between atoms: C_1  and  S_2
REMARK    2  A    between atoms: S_2  and  C_3
REMARK    3  A    between atoms: C_6  and  C_9
REMARK    4  A    between atoms: C_9  and  C_11
REMARK    5  A    between atoms: C_12  and  C_13
REMARK                            x       y       z     vdW  Elec       q    Type
REMARK                         _______ _______ _______ _____ _____    ______ ____
ROOT
ATOM      1  C   UNL     1       4.646   2.072  -5.365  0.00  0.00    +0.000 C 
ATOM      2  O   UNL     1       5.138   1.298  -6.179  0.00  0.00    +0.000 OA
ENDROOT
BRANCH   1   3
ATOM      3  C   UNL     1       4.349   3.467  -5.748  0.00  0.00    +0.000 A 
ATOM      4  C   UNL     1       4.821   4.595  -5.194  0.00  0.00    +0.000 A 
ATOM      5  C   UNL     1       5.800   4.756  -4.091  0.00  0.00    +0.000 C 
ATOM      6  N   UNL     1       4.213   5.662  -5.818  0.00  0.00    +0.000 N 
ATOM      7  C   UNL     1       3.355   5.184  -6.821  0.00  0.00    +0.000 A 
ATOM      8  O   UNL     1       2.647   5.838  -7.569  0.00  0.00    +0.000 OA
ATOM      9  N   UNL     1       3.476   3.794  -6.757  0.00  0.00    +0.000 N 
ATOM     10  H   UNL     1       4.335   6.644  -5.620  0.00  0.00    +0.000 HD
ATOM     11  H   UNL     1       2.994   3.146  -7.361  0.00  0.00    +0.000 HD
ENDBRANCH   1   3
BRANCH   1  15
ATOM     12  C   UNL     1       3.252   0.585  -1.554  0.00  0.00    +0.000 A 
ATOM     13  C   UNL     1       3.921  -0.243  -2.462  0.00  0.00    +0.000 A 
ATOM     14  C   UNL     1       4.444   0.274  -3.656  0.00  0.00    +0.000 A 
ATOM     15  C   UNL     1       4.227   1.612  -4.001  0.00  0.00    +0.000 A 
ATOM     16  C   UNL     1       3.555   2.438  -3.087  0.00  0.00    +0.000 A 
ATOM     17  C   UNL     1       3.092   1.934  -1.866  0.00  0.00    +0.000 A 
BRANCH  12  19
ATOM     18  C   UNL     1       0.975   0.070  -0.018  0.00  0.00    +0.000 C 
ATOM     19  S   UNL     1       2.785  -0.045   0.049  0.00  0.00    +0.000 S 
ENDBRANCH  12  19
ENDBRANCH   1  15
TORSDOF 3
