REMARK  Name = Enoxacin
REMARK  5 active torsions:
REMARK  status: ('A' for Active; 'I' for Inactive)
REMARK    1  A    between atoms: C_1  and  C_2
REMARK    2  A    between atoms: C_2  and  N_3
REMARK    3  A    between atoms: C_5  and  C_6
REMARK    4  A    between atoms: C_6  and  O_7
REMARK    5  A    between atoms: C_15  and  N_18
REMARK                            x       y       z     vdW  Elec       q    Type
REMARK                         _______ _______ _______ _____ _____    ______ ____
ROOT
ATOM      1  N   UNL     1       3.034   0.775   1.140  0.00  0.00    +0.000 N 
ATOM      2  C   UNL     1       3.600   0.215   2.283  0.00  0.00    +0.000 A 
ATOM      3  C   UNL     1       3.934   0.873   3.406  0.00  0.00    +0.000 A 
ATOM      4  C   UNL     1       3.663   2.322   3.408  0.00  0.00    +0.000 A 
ATOM      5  O   UNL     1       3.915   2.991   4.409  0.00  0.00    +0.000 OA
ATOM      6  C   UNL     1       3.085   2.945   2.198  0.00  0.00    +0.000 A 
ATOM      7  C   UNL     1       2.834   4.309   2.189  0.00  0.00    +0.000 A 
ATOM      8  C   UNL     1       2.291   4.880   1.049  0.00  0.00    +0.000 A 
ATOM      9  F   UNL     1       2.047   6.199   1.059  0.00  0.00    +0.000 F 
ATOM     10  C   UNL     1       1.973   4.098  -0.071  0.00  0.00    +0.000 A 
ATOM     11  N   UNL     1       2.205   2.753  -0.040  0.00  0.00    +0.000 NA
ATOM     12  C   UNL     1       2.768   2.175   1.073  0.00  0.00    +0.000 A 
ENDROOT
BRANCH  10  13
ATOM     13  N   UNL     1       1.459   4.683  -1.210  0.00  0.00    +0.000 N 
ATOM     14  C   UNL     1       0.183   4.304  -1.820  0.00  0.00    +0.000 C 
ATOM     15  C   UNL     1      -0.725   5.567  -1.962  0.00  0.00    +0.000 C 
ATOM     16  N   UNL     1      -0.074   6.677  -2.695  0.00  0.00    +0.000 NA
ATOM     17  C   UNL     1       1.198   7.012  -2.022  0.00  0.00    +0.000 C 
ATOM     18  C   UNL     1       2.142   5.794  -1.881  0.00  0.00    +0.000 C 
ATOM     19  H   UNL     1      -0.683   7.495  -2.689  0.00  0.00    +0.000 HD
ENDBRANCH  10  13
BRANCH   1  21
ATOM     20  C   UNL     1       1.044  -0.106  -0.023  0.00  0.00    +0.000 C 
ATOM     21  C   UNL     1       2.566  -0.023  -0.002  0.00  0.00    +0.000 C 
ENDBRANCH   1  21
BRANCH   3  22
ATOM     22  C   UNL     1       4.522   0.159   4.564  0.00  0.00    +0.000 C 
ATOM     23  O   UNL     1       4.748  -1.047   4.564  0.00  0.00    +0.000 OA
BRANCH  22  24
ATOM     24  O   UNL     1       4.796   0.932   5.638  0.00  0.00    +0.000 OA
ATOM     25  H   UNL     1       4.569   1.888   5.530  0.00  0.00    +0.000 HD
ENDBRANCH  22  24
ENDBRANCH   3  22
TORSDOF 4
