REMARK  Name = Enprofylline
REMARK  3 active torsions:
REMARK  status: ('A' for Active; 'I' for Inactive)
REMARK    1  A    between atoms: C_1  and  C_2
REMARK    2  A    between atoms: C_2  and  C_3
REMARK    3  A    between atoms: C_3  and  N_4
REMARK                            x       y       z     vdW  Elec       q    Type
REMARK                         _______ _______ _______ _____ _____    ______ ____
ROOT
ATOM      1  N   UNL     1       4.554   0.527   1.441  0.00  0.00    +0.000 N 
ATOM      2  C   UNL     1       5.284   1.699   1.432  0.00  0.00    +0.000 A 
ATOM      3  C   UNL     1       6.648   1.678   1.434  0.00  0.00    +0.000 A 
ATOM      4  N   UNL     1       7.039   2.983   1.433  0.00  0.00    +0.000 N 
ATOM      5  C   UNL     1       5.892   3.734   1.432  0.00  0.00    +0.000 A 
ATOM      6  N   UNL     1       4.810   2.977   1.428  0.00  0.00    +0.000 NA
ATOM      7  C   UNL     1       7.410   0.486   1.436  0.00  0.00    +0.000 A 
ATOM      8  O   UNL     1       8.635   0.443   1.431  0.00  0.00    +0.000 OA
ATOM      9  N   UNL     1       6.620  -0.638   1.445  0.00  0.00    +0.000 N 
ATOM     10  C   UNL     1       5.240  -0.687   1.456  0.00  0.00    +0.000 A 
ATOM     11  O   UNL     1       4.689  -1.788   1.474  0.00  0.00    +0.000 OA
ATOM     12  H   UNL     1       7.993   3.323   1.435  0.00  0.00    +0.000 HD
ATOM     13  H   UNL     1       7.090  -1.529   1.445  0.00  0.00    +0.000 HD
ENDROOT
BRANCH   1  14
ATOM     14  C   UNL     1       3.099   0.515   1.421  0.00  0.00    +0.000 C 
BRANCH  14  16
ATOM     15  C   UNL     1       1.036  -0.001   0.081  0.00  0.00    +0.000 C 
ATOM     16  C   UNL     1       2.553   0.014   0.082  0.00  0.00    +0.000 C 
ENDBRANCH  14  16
ENDBRANCH   1  14
TORSDOF 2
