REMARK  Name = Ensulizole
REMARK  3 active torsions:
REMARK  status: ('A' for Active; 'I' for Inactive)
REMARK    1  A    between atoms: O_1  and  S_2
REMARK    2  A    between atoms: S_2  and  C_5
REMARK    3  A    between atoms: C_12  and  C_14
REMARK                            x       y       z     vdW  Elec       q    Type
REMARK                         _______ _______ _______ _____ _____    ______ ____
ROOT
ATOM      1  C   UNL     1       3.205  -1.125  -1.191  0.00  0.00    +0.000 A 
ATOM      2  C   UNL     1       3.851  -0.638  -2.340  0.00  0.00    +0.000 A 
ATOM      3  C   UNL     1       4.119  -1.580  -3.340  0.00  0.00    +0.000 A 
ATOM      4  C   UNL     1       3.805  -2.930  -3.222  0.00  0.00    +0.000 A 
ATOM      5  C   UNL     1       3.207  -3.400  -2.044  0.00  0.00    +0.000 A 
ATOM      6  C   UNL     1       2.901  -2.483  -1.031  0.00  0.00    +0.000 A 
ATOM      7  N   UNL     1       4.145  -3.613  -4.361  0.00  0.00    +0.000 NA
ATOM      8  C   UNL     1       4.680  -2.722  -5.174  0.00  0.00    +0.000 A 
ATOM      9  N   UNL     1       4.680  -1.477  -4.589  0.00  0.00    +0.000 N 
ATOM     10  H   UNL     1       5.010  -0.632  -5.030  0.00  0.00    +0.000 HD
ENDROOT
BRANCH   8  11
ATOM     11  C   UNL     1       5.224  -2.988  -6.500  0.00  0.00    +0.000 A 
ATOM     12  C   UNL     1       4.427  -3.588  -7.482  0.00  0.00    +0.000 A 
ATOM     13  C   UNL     1       4.983  -3.972  -8.704  0.00  0.00    +0.000 A 
ATOM     14  C   UNL     1       6.321  -3.693  -8.980  0.00  0.00    +0.000 A 
ATOM     15  C   UNL     1       7.115  -3.070  -8.019  0.00  0.00    +0.000 A 
ATOM     16  C   UNL     1       6.571  -2.725  -6.780  0.00  0.00    +0.000 A 
ENDBRANCH   8  11
BRANCH   1  17
ATOM     17  S   UNL     1       2.712  -0.005   0.099  0.00  0.00    +0.000 S 
ATOM     18  O   UNL     1       3.095   1.342  -0.278  0.00  0.00    +0.000 OA
ATOM     19  O   UNL     1       3.107  -0.568   1.368  0.00  0.00    +0.000 OA
BRANCH  17  20
ATOM     20  O   UNL     1       1.098  -0.044   0.054  0.00  0.00    +0.000 OA
ATOM     21  H   UNL     1       0.754   0.547   0.755  0.00  0.00    +0.000 HD
ENDBRANCH  17  20
ENDBRANCH   1  17
TORSDOF 3
