REMARK  Name = Entacapone
REMARK  10 active torsions:
REMARK  status: ('A' for Active; 'I' for Inactive)
REMARK    1  A    between atoms: C_1  and  C_2
REMARK    2  A    between atoms: C_2  and  N_3
REMARK    3  A    between atoms: N_3  and  C_4
REMARK    4  A    between atoms: C_4  and  C_5
REMARK    5  A    between atoms: C_6  and  C_8
REMARK    6  A    between atoms: C_8  and  C_21
REMARK    7  A    between atoms: C_9  and  C_10
REMARK    8  A    between atoms: C_12  and  N_18
REMARK    9  A    between atoms: C_13  and  O_14
REMARK   10  A    between atoms: C_15  and  O_16
REMARK                            x       y       z     vdW  Elec       q    Type
REMARK                         _______ _______ _______ _____ _____    ______ ____
ROOT
ATOM      1  C   UNL     1       4.638   4.316   3.474  0.00  0.00    +0.000 A 
ATOM      2  C   UNL     1       5.611   5.209   3.049  0.00  0.00    +0.000 A 
ATOM      3  C   UNL     1       6.043   6.207   3.917  0.00  0.00    +0.000 A 
ATOM      4  C   UNL     1       5.438   6.365   5.174  0.00  0.00    +0.000 A 
ATOM      5  C   UNL     1       4.394   5.512   5.539  0.00  0.00    +0.000 A 
ATOM      6  C   UNL     1       3.988   4.491   4.700  0.00  0.00    +0.000 A 
ENDROOT
BRANCH   3   7
ATOM      7  N   UNL     1       7.145   7.053   3.470  0.00  0.00    +0.000 N 
ATOM      8  O   UNL     1       7.620   6.853   2.344  0.00  0.00    +0.000 OA
ATOM      9  O   UNL     1       7.533   7.932   4.254  0.00  0.00    +0.000 OA
ENDBRANCH   3   7
BRANCH   1  11
ATOM     10  C   UNL     1       4.900   2.355   1.876  0.00  0.00    +0.000 C 
ATOM     11  C   UNL     1       4.193   3.246   2.599  0.00  0.00    +0.000 C 
BRANCH  10  13
ATOM     12  N   UNL     1       2.906   1.074   0.804  0.00  0.00    +0.000 N 
ATOM     13  C   UNL     1       4.309   1.270   0.972  0.00  0.00    +0.000 C 
ATOM     14  O   UNL     1       5.112   0.547   0.371  0.00  0.00    +0.000 OA
BRANCH  12  16
ATOM     15  C   UNL     1       1.038  -0.312  -0.333  0.00  0.00    +0.000 C 
ATOM     16  C   UNL     1       2.514  -0.033  -0.105  0.00  0.00    +0.000 C 
ENDBRANCH  12  16
BRANCH  12  17
ATOM     17  C   UNL     1       1.915   1.907   1.485  0.00  0.00    +0.000 C 
ATOM     18  C   UNL     1       0.421   1.765   1.368  0.00  0.00    +0.000 C 
ENDBRANCH  12  17
ENDBRANCH  10  13
BRANCH  10  19
ATOM     19  C   UNL     1       6.341   2.421   1.964  0.00  0.00    +0.000 C 
ATOM     20  N   UNL     1       7.467   2.626   2.127  0.00  0.00    +0.000 NA
ENDBRANCH  10  19
ENDBRANCH   1  11
BRANCH   4  21
ATOM     21  O   UNL     1       5.787   7.313   6.098  0.00  0.00    +0.000 OA
ATOM     22  H   UNL     1       6.539   7.838   5.743  0.00  0.00    +0.000 HD
ENDBRANCH   4  21
BRANCH   5  23
ATOM     23  O   UNL     1       3.741   5.636   6.733  0.00  0.00    +0.000 OA
ATOM     24  H   UNL     1       4.164   6.379   7.203  0.00  0.00    +0.000 HD
ENDBRANCH   5  23
TORSDOF 8
