REMARK  Name = Entecavir
REMARK  4 active torsions:
REMARK  status: ('A' for Active; 'I' for Inactive)
REMARK    1  A    between atoms: N_9  and  C_12
REMARK    2  A    between atoms: C_14  and  O_15
REMARK    3  A    between atoms: C_16  and  C_17
REMARK    4  A    between atoms: C_17  and  O_18
REMARK                            x       y       z     vdW  Elec       q    Type
REMARK                         _______ _______ _______ _____ _____    ______ ____
ROOT
ATOM      1  N   UNL     1       7.112   2.135   4.759  0.00  0.00    +0.000 N 
ATOM      2  C   UNL     1       7.622   2.775   3.685  0.00  0.00    +0.000 A 
ATOM      3  N   UNL     1       8.863   3.169   3.694  0.00  0.00    +0.000 NA
ATOM      4  C   UNL     1       9.401   3.818   2.580  0.00  0.00    +0.000 A 
ATOM      5  O   UNL     1      10.568   4.208   2.542  0.00  0.00    +0.000 OA
ATOM      6  C   UNL     1       8.489   3.985   1.448  0.00  0.00    +0.000 A 
ATOM      7  C   UNL     1       7.199   3.528   1.542  0.00  0.00    +0.000 A 
ATOM      8  N   UNL     1       6.733   2.930   2.650  0.00  0.00    +0.000 N 
ATOM      9  N   UNL     1       6.582   3.833   0.363  0.00  0.00    +0.000 N 
ATOM     10  C   UNL     1       7.571   4.359  -0.438  0.00  0.00    +0.000 A 
ATOM     11  N   UNL     1       8.706   4.531   0.208  0.00  0.00    +0.000 NA
ATOM     12  H   UNL     1       7.734   1.983   5.544  0.00  0.00    +0.000 HD
ATOM     13  H   UNL     1       6.161   1.816   4.845  0.00  0.00    +0.000 HD
ATOM     14  H   UNL     1       5.785   2.604   2.772  0.00  0.00    +0.000 HD
ENDROOT
BRANCH   9  15
ATOM     15  C   UNL     1       5.153   3.703   0.068  0.00  0.00    +0.000 C 
ATOM     16  C   UNL     1       4.301   4.447   1.112  0.00  0.00    +0.000 C 
ATOM     17  C   UNL     1       3.855   5.776   0.490  0.00  0.00    +0.000 C 
ATOM     18  C   UNL     1       4.385   5.816  -0.952  0.00  0.00    +0.000 C 
ATOM     19  C   UNL     1       4.686   4.352  -1.222  0.00  0.00    +0.000 C 
ATOM     20  C   UNL     1       4.417   3.710  -2.371  0.00  0.00    +0.000 C 
BRANCH  17  21
ATOM     21  O   UNL     1       2.431   5.850   0.525  0.00  0.00    +0.000 OA
ATOM     22  H   UNL     1       2.065   5.120  -0.003  0.00  0.00    +0.000 HD
ENDBRANCH  17  21
BRANCH  18  23
ATOM     23  C   UNL     1       5.649   6.686  -1.039  0.00  0.00    +0.000 C 
BRANCH  23  24
ATOM     24  O   UNL     1       5.391   8.050  -0.761  0.00  0.00    +0.000 OA
ATOM     25  H   UNL     1       4.776   8.386  -1.430  0.00  0.00    +0.000 HD
ENDBRANCH  23  24
ENDBRANCH  18  23
ENDBRANCH   9  15
TORSDOF 4
