REMARK  Name = Entrectinib
REMARK  7 active torsions:
REMARK  status: ('A' for Active; 'I' for Inactive)
REMARK    1  A    between atoms: C_1  and  N_2
REMARK    2  A    between atoms: N_5  and  C_8
REMARK    3  A    between atoms: C_11  and  C_12
REMARK    4  A    between atoms: C_21  and  C_22
REMARK    5  A    between atoms: C_22  and  C_23
REMARK    6  A    between atoms: C_33  and  N_34
REMARK    7  A    between atoms: N_34  and  C_35
REMARK                            x       y       z     vdW  Elec       q    Type
REMARK                         _______ _______ _______ _____ _____    ______ ____
ROOT
ATOM      1  C   UNL     1      -7.103   0.028   3.509  0.00  0.00    +0.000 C 
ATOM      2  O   UNL     1      -8.112   0.529   3.000  0.00  0.00    +0.000 OA
ATOM      3  N   UNL     1      -7.052  -0.602   5.039  0.00  0.00    +0.000 N 
ATOM      4  C   UNL     1      -8.268  -1.149   6.012  0.00  0.00    +0.000 A 
ATOM      5  N   UNL     1      -9.108  -1.814   5.234  0.00  0.00    +0.000 NA
ATOM      6  N   UNL     1     -10.157  -1.593   5.960  0.00  0.00    +0.000 N 
ATOM      7  C   UNL     1     -10.016  -2.060   7.226  0.00  0.00    +0.000 A 
ATOM      8  C   UNL     1     -11.174  -2.708   7.834  0.00  0.00    +0.000 A 
ATOM      9  C   UNL     1     -11.370  -3.082   9.133  0.00  0.00    +0.000 A 
ATOM     10  C   UNL     1     -10.295  -2.867   9.923  0.00  0.00    +0.000 A 
ATOM     11  C   UNL     1      -9.095  -2.128   9.216  0.00  0.00    +0.000 A 
ATOM     12  C   UNL     1      -8.655  -1.640   7.696  0.00  0.00    +0.000 A 
ATOM     13  H   UNL     1      -6.644  -1.500   4.792  0.00  0.00    +0.000 HD
ATOM     14  H   UNL     1     -10.797  -0.868   5.683  0.00  0.00    +0.000 HD
ENDROOT
BRANCH   1  18
ATOM     15  C   UNL     1      -3.165   0.010   0.740  0.00  0.00    +0.000 A 
ATOM     16  C   UNL     1      -4.315   0.650   0.312  0.00  0.00    +0.000 A 
ATOM     17  C   UNL     1      -5.551   0.694   1.146  0.00  0.00    +0.000 A 
ATOM     18  C   UNL     1      -5.709   0.067   2.459  0.00  0.00    +0.000 A 
ATOM     19  C   UNL     1      -4.535  -0.572   2.839  0.00  0.00    +0.000 A 
ATOM     20  C   UNL     1      -3.355  -0.613   1.965  0.00  0.00    +0.000 A 
BRANCH  15  25
ATOM     21  C   UNL     1       2.428   0.001   0.054  0.00  0.00    +0.000 C 
ATOM     22  N   UNL     1       1.009  -0.002  -0.299  0.00  0.00    +0.000 NA
ATOM     23  C   UNL     1       0.314   1.191   0.233  0.00  0.00    +0.000 C 
ATOM     24  C   UNL     1      -1.190   1.251  -0.193  0.00  0.00    +0.000 C 
ATOM     25  N   UNL     1      -1.919   0.005   0.129  0.00  0.00    +0.000 N 
ATOM     26  C   UNL     1      -1.172  -1.243  -0.181  0.00  0.00    +0.000 C 
ATOM     27  C   UNL     1       0.320  -1.185   0.258  0.00  0.00    +0.000 C 
ENDBRANCH  15  25
BRANCH  19  28
ATOM     28  N   UNL     1      -4.553  -1.229   4.071  0.00  0.00    +0.000 N 
ATOM     29  H   UNL     1      -5.060  -0.672   4.757  0.00  0.00    +0.000 HD
BRANCH  28  30
ATOM     30  C   UNL     1      -3.356  -1.820   4.614  0.00  0.00    +0.000 C 
ATOM     31  C   UNL     1      -2.218  -0.809   4.808  0.00  0.00    +0.000 C 
ATOM     32  C   UNL     1      -0.959  -1.550   5.197  0.00  0.00    +0.000 C 
ATOM     33  O   UNL     1      -0.693  -2.625   4.294  0.00  0.00    +0.000 OA
ATOM     34  C   UNL     1      -1.705  -3.633   4.307  0.00  0.00    +0.000 C 
ATOM     35  C   UNL     1      -3.015  -3.078   3.820  0.00  0.00    +0.000 C 
ENDBRANCH  28  30
ENDBRANCH  19  28
ENDBRANCH   1  18
BRANCH  10  36
ATOM     36  C   UNL     1     -10.557  -3.537  11.336  0.00  0.00    +0.000 C 
BRANCH  36  37
ATOM     37  C   UNL     1      -9.530  -3.431  12.415  0.00  0.00    +0.000 A 
ATOM     38  C   UNL     1      -8.944  -4.540  13.054  0.00  0.00    +0.000 A 
ATOM     39  C   UNL     1      -8.021  -4.327  14.078  0.00  0.00    +0.000 A 
ATOM     40  F   UNL     1      -7.515  -5.371  14.749  0.00  0.00    +0.000 F 
ATOM     41  C   UNL     1      -7.626  -3.042  14.425  0.00  0.00    +0.000 A 
ATOM     42  C   UNL     1      -8.253  -1.962  13.823  0.00  0.00    +0.000 A 
ATOM     43  F   UNL     1      -7.922  -0.713  14.167  0.00  0.00    +0.000 F 
ATOM     44  C   UNL     1      -9.226  -2.147  12.860  0.00  0.00    +0.000 A 
ENDBRANCH  36  37
ENDBRANCH  10  36
TORSDOF 6
