REMARK  Name = Enzacamene
REMARK  5 active torsions:
REMARK  status: ('A' for Active; 'I' for Inactive)
REMARK    1  A    between atoms: C_1  and  C_2
REMARK    2  A    between atoms: C_5  and  C_6
REMARK    3  A    between atoms: C_11  and  C_12
REMARK    4  A    between atoms: C_15  and  C_16
REMARK    5  A    between atoms: C_15  and  C_17
REMARK                            x       y       z     vdW  Elec       q    Type
REMARK                         _______ _______ _______ _____ _____    ______ ____
ROOT
ATOM      1  C   UNL     1      -3.279   0.089  -0.082  0.00  0.00    +0.000 C 
ATOM      2  C   UNL     1      -4.006   1.216  -0.025  0.00  0.00    +0.000 C 
ATOM      3  C   UNL     1      -3.624   2.669   0.213  0.00  0.00    +0.000 C 
ATOM      4  C   UNL     1      -3.858   3.411  -1.118  0.00  0.00    +0.000 C 
ATOM      5  C   UNL     1      -5.400   3.519  -1.175  0.00  0.00    +0.000 C 
ATOM      6  C   UNL     1      -5.850   2.806   0.130  0.00  0.00    +0.000 C 
ATOM      7  C   UNL     1      -7.240   3.131   0.606  0.00  0.00    +0.000 C 
ATOM      8  C   UNL     1      -5.514   1.327  -0.094  0.00  0.00    +0.000 C 
ATOM      9  O   UNL     1      -6.292   0.410  -0.304  0.00  0.00    +0.000 OA
ATOM     10  C   UNL     1      -4.738   3.162   1.140  0.00  0.00    +0.000 C 
ATOM     11  C   UNL     1      -4.589   4.650   1.490  0.00  0.00    +0.000 C 
ATOM     12  C   UNL     1      -4.775   2.386   2.476  0.00  0.00    +0.000 C 
ENDROOT
BRANCH   1  17
ATOM     13  C   UNL     1       2.529  -0.047  -0.005  0.00  0.00    +0.000 C 
ATOM     14  C   UNL     1       1.036  -0.066   0.017  0.00  0.00    +0.000 A 
ATOM     15  C   UNL     1       0.279  -1.244   0.022  0.00  0.00    +0.000 A 
ATOM     16  C   UNL     1      -1.128  -1.202   0.015  0.00  0.00    +0.000 A 
ATOM     17  C   UNL     1      -1.801   0.023  -0.033  0.00  0.00    +0.000 A 
ATOM     18  C   UNL     1      -1.001   1.170  -0.096  0.00  0.00    +0.000 A 
ATOM     19  C   UNL     1       0.379   1.147  -0.017  0.00  0.00    +0.000 A 
ENDBRANCH   1  17
TORSDOF 1
