REMARK  Name = Enzalutamide
REMARK  8 active torsions:
REMARK  status: ('A' for Active; 'I' for Inactive)
REMARK    1  A    between atoms: C_1  and  N_2
REMARK    2  A    between atoms: C_3  and  C_5
REMARK    3  A    between atoms: C_9  and  N_12
REMARK    4  A    between atoms: N_15  and  C_21
REMARK    5  A    between atoms: C_18  and  C_19
REMARK    6  A    between atoms: C_18  and  C_20
REMARK    7  A    between atoms: C_24  and  C_25
REMARK    8  A    between atoms: C_27  and  C_29
REMARK                            x       y       z     vdW  Elec       q    Type
REMARK                         _______ _______ _______ _____ _____    ______ ____
ROOT
ATOM      1  N   UNL     1       9.005   1.182   0.063  0.00  0.00    +0.000 N 
ATOM      2  C   UNL     1       9.783   0.820   1.194  0.00  0.00    +0.000 C 
ATOM      3  S   UNL     1       9.183   0.338   2.686  0.00  0.00    +0.000 S 
ATOM      4  N   UNL     1      11.123   0.934   0.839  0.00  0.00    +0.000 N 
ATOM      5  C   UNL     1      11.254   1.336  -0.476  0.00  0.00    +0.000 C 
ATOM      6  O   UNL     1      12.299   1.485  -1.099  0.00  0.00    +0.000 OA
ATOM      7  C   UNL     1       9.850   1.553  -1.079  0.00  0.00    +0.000 C 
ATOM      8  C   UNL     1       9.732   3.033  -1.460  0.00  0.00    +0.000 C 
ATOM      9  C   UNL     1       9.660   0.662  -2.305  0.00  0.00    +0.000 C 
ENDROOT
BRANCH   1  14
ATOM     10  C   UNL     1       4.747   1.268   0.052  0.00  0.00    +0.000 A 
ATOM     11  C   UNL     1       5.449   0.479  -0.849  0.00  0.00    +0.000 A 
ATOM     12  F   UNL     1       4.805  -0.296  -1.733  0.00  0.00    +0.000 F 
ATOM     13  C   UNL     1       6.848   0.471  -0.864  0.00  0.00    +0.000 A 
ATOM     14  C   UNL     1       7.584   1.254   0.029  0.00  0.00    +0.000 A 
ATOM     15  C   UNL     1       6.881   2.064   0.930  0.00  0.00    +0.000 A 
ATOM     16  C   UNL     1       5.473   2.084   0.932  0.00  0.00    +0.000 A 
BRANCH  10  19
ATOM     17  C   UNL     1       1.143   0.050  -0.039  0.00  0.00    +0.000 C 
ATOM     18  N   UNL     1       2.589   0.100  -0.037  0.00  0.00    +0.000 N 
ATOM     19  C   UNL     1       3.262   1.305   0.055  0.00  0.00    +0.000 C 
ATOM     20  O   UNL     1       2.694   2.387   0.163  0.00  0.00    +0.000 OA
ATOM     21  H   UNL     1       3.102  -0.770  -0.112  0.00  0.00    +0.000 HD
ENDBRANCH  10  19
ENDBRANCH   1  14
BRANCH   4  22
ATOM     22  C   UNL     1      12.240   0.652   1.672  0.00  0.00    +0.000 A 
ATOM     23  C   UNL     1      12.392  -0.603   2.274  0.00  0.00    +0.000 A 
ATOM     24  C   UNL     1      13.493  -0.878   3.095  0.00  0.00    +0.000 A 
ATOM     25  C   UNL     1      14.470   0.096   3.332  0.00  0.00    +0.000 A 
ATOM     26  C   UNL     1      14.316   1.375   2.773  0.00  0.00    +0.000 A 
ATOM     27  C   UNL     1      13.204   1.635   1.931  0.00  0.00    +0.000 A 
BRANCH  26  28
ATOM     28  C   UNL     1      15.299   2.492   3.037  0.00  0.00    +0.000 C 
ATOM     29  F   UNL     1      15.861   2.953   1.888  0.00  0.00    +0.000 F 
ATOM     30  F   UNL     1      14.700   3.565   3.623  0.00  0.00    +0.000 F 
ATOM     31  F   UNL     1      16.336   2.171   3.851  0.00  0.00    +0.000 F 
ENDBRANCH  26  28
BRANCH  25  32
ATOM     32  C   UNL     1      15.628  -0.273   4.104  0.00  0.00    +0.000 C 
ATOM     33  N   UNL     1      16.577  -0.573   4.695  0.00  0.00    +0.000 NA
ENDBRANCH  25  32
ENDBRANCH   4  22
TORSDOF 5
