REMARK  Name = Ephedrine
REMARK  6 active torsions:
REMARK  status: ('A' for Active; 'I' for Inactive)
REMARK    1  A    between atoms: C_1  and  N_2
REMARK    2  A    between atoms: N_2  and  C_3
REMARK    3  A    between atoms: C_3  and  C_4
REMARK    4  A    between atoms: C_3  and  C_5
REMARK    5  A    between atoms: C_5  and  O_6
REMARK    6  A    between atoms: C_5  and  C_7
REMARK                            x       y       z     vdW  Elec       q    Type
REMARK                         _______ _______ _______ _____ _____    ______ ____
ROOT
ATOM      1  C   UNL     1       4.236  -0.855   1.275  0.00  0.00    +0.000 C 
ENDROOT
BRANCH   1   2
ATOM      2  C   UNL     1       4.293  -1.907   2.377  0.00  0.00    +0.000 A 
ATOM      3  C   UNL     1       4.524  -3.258   2.090  0.00  0.00    +0.000 A 
ATOM      4  C   UNL     1       4.886  -4.146   3.117  0.00  0.00    +0.000 A 
ATOM      5  C   UNL     1       5.159  -3.651   4.398  0.00  0.00    +0.000 A 
ATOM      6  C   UNL     1       4.939  -2.322   4.685  0.00  0.00    +0.000 A 
ATOM      7  C   UNL     1       4.385  -1.483   3.717  0.00  0.00    +0.000 A 
ENDBRANCH   1   2
BRANCH   1   8
ATOM      8  C   UNL     1       5.236   0.368   1.453  0.00  0.00    +0.000 C 
ATOM      9  C   UNL     1       4.900   1.453   2.507  0.00  0.00    +0.000 C 
BRANCH   8  11
ATOM     10  C   UNL     1       7.089  -0.839   2.622  0.00  0.00    +0.000 C 
ATOM     11  N   UNL     1       6.669  -0.049   1.467  0.00  0.00    +0.000 NA
ATOM     12  H   UNL     1       6.790  -0.658   0.656  0.00  0.00    +0.000 HD
ENDBRANCH   8  11
ENDBRANCH   1   8
BRANCH   1  13
ATOM     13  O   UNL     1       2.898  -0.407   1.095  0.00  0.00    +0.000 OA
ATOM     14  H   UNL     1       2.445  -0.520   1.946  0.00  0.00    +0.000 HD
ENDBRANCH   1  13
TORSDOF 4
