REMARK  Name = Epicriptine
REMARK  11 active torsions:
REMARK  status: ('A' for Active; 'I' for Inactive)
REMARK    1  A    between atoms: C_9  and  C_11
REMARK    2  A    between atoms: C_11  and  C_12
REMARK    3  A    between atoms: C_11  and  C_13
REMARK    4  A    between atoms: C_13  and  C_14
REMARK    5  A    between atoms: C_18  and  N_19
REMARK    6  A    between atoms: C_18  and  C_44
REMARK    7  A    between atoms: C_20  and  C_22
REMARK    8  A    between atoms: N_24  and  C_25
REMARK    9  A    between atoms: C_42  and  O_43
REMARK   10  A    between atoms: C_44  and  C_45
REMARK   11  A    between atoms: C_44  and  C_46
REMARK                            x       y       z     vdW  Elec       q    Type
REMARK                         _______ _______ _______ _____ _____    ______ ____
ROOT
ATOM      1  C   UNL     1      -6.515   8.607  -8.968  0.00  0.00    +0.000 C 
ATOM      2  C   UNL     1      -6.825   9.497 -10.205  0.00  0.00    +0.000 C 
ATOM      3  C   UNL     1      -8.342   9.365 -10.508  0.00  0.00    +0.000 C 
ATOM      4  C   UNL     1      -8.935   8.523  -9.403  0.00  0.00    +0.000 C 
ATOM      5  N   UNL     1      -7.788   7.911  -8.771  0.00  0.00    +0.000 N 
ATOM      6  C   UNL     1      -7.768   6.644  -8.282  0.00  0.00    +0.000 C 
ATOM      7  O   UNL     1      -8.618   5.804  -8.544  0.00  0.00    +0.000 OA
ATOM      8  C   UNL     1      -6.434   6.367  -7.592  0.00  0.00    +0.000 C 
ATOM      9  N   UNL     1      -5.475   7.668  -7.401  0.00  0.00    +0.000 N 
ATOM     10  C   UNL     1      -4.273   7.895  -6.674  0.00  0.00    +0.000 C 
ATOM     11  O   UNL     1      -3.759   9.004  -6.561  0.00  0.00    +0.000 OA
ATOM     12  C   UNL     1      -3.640   6.617  -6.246  0.00  0.00    +0.000 C 
ATOM     13  O   UNL     1      -4.025   6.580  -7.994  0.00  0.00    +0.000 OA
ATOM     14  C   UNL     1      -4.942   7.730  -8.678  0.00  0.00    +0.000 C 
ENDROOT
BRANCH  12  15
ATOM     15  N   UNL     1      -2.376   5.836  -5.971  0.00  0.00    +0.000 N 
ATOM     16  C   UNL     1      -1.532   6.514  -5.071  0.00  0.00    +0.000 C 
ATOM     17  O   UNL     1      -0.949   7.460  -5.609  0.00  0.00    +0.000 OA
ATOM     18  H   UNL     1      -2.629   4.886  -5.680  0.00  0.00    +0.000 HD
BRANCH  16  19
ATOM     19  C   UNL     1      -1.267   6.291  -3.429  0.00  0.00    +0.000 C 
ATOM     20  C   UNL     1      -0.541   7.592  -2.866  0.00  0.00    +0.000 C 
ATOM     21  N   UNL     1      -0.403   7.685  -1.131  0.00  0.00    +0.000 NA
ATOM     22  C   UNL     1       0.337   8.842  -0.603  0.00  0.00    +0.000 C 
ATOM     23  C   UNL     1      -1.725   7.812  -0.234  0.00  0.00    +0.000 C 
ATOM     24  C   UNL     1      -3.447   8.419   0.074  0.00  0.00    +0.000 C 
ATOM     25  C   UNL     1      -3.362   9.784   0.212  0.00  0.00    +0.000 A 
ATOM     26  C   UNL     1      -3.732  10.641   1.254  0.00  0.00    +0.000 A 
ATOM     27  N   UNL     1      -3.031  11.760   0.979  0.00  0.00    +0.000 N 
ATOM     28  C   UNL     1      -2.267  11.643  -0.178  0.00  0.00    +0.000 A 
ATOM     29  C   UNL     1      -1.246  12.471  -0.614  0.00  0.00    +0.000 A 
ATOM     30  C   UNL     1      -0.568  11.947  -1.707  0.00  0.00    +0.000 A 
ATOM     31  C   UNL     1      -0.944  10.606  -2.287  0.00  0.00    +0.000 A 
ATOM     32  C   UNL     1      -2.097   9.638  -1.818  0.00  0.00    +0.000 A 
ATOM     33  C   UNL     1      -2.643  10.420  -0.750  0.00  0.00    +0.000 A 
ATOM     34  C   UNL     1      -2.288   7.750  -1.562  0.00  0.00    +0.000 C 
ATOM     35  C   UNL     1      -2.312   6.310  -2.352  0.00  0.00    +0.000 C 
ATOM     36  H   UNL     1      -2.945  12.527   1.639  0.00  0.00    +0.000 HD
ENDBRANCH  16  19
ENDBRANCH  12  15
BRANCH  12  37
ATOM     37  C   UNL     1      -4.305   6.287  -4.597  0.00  0.00    +0.000 C 
ATOM     38  C   UNL     1      -5.158   5.182  -3.795  0.00  0.00    +0.000 C 
ATOM     39  C   UNL     1      -4.318   7.635  -3.905  0.00  0.00    +0.000 C 
ENDBRANCH  12  37
BRANCH   8  40
ATOM     40  C   UNL     1      -6.328   5.577  -6.355  0.00  0.00    +0.000 C 
ATOM     41  C   UNL     1      -5.118   4.588  -6.641  0.00  0.00    +0.000 C 
BRANCH  40  42
ATOM     42  C   UNL     1      -7.497   4.874  -5.721  0.00  0.00    +0.000 C 
ATOM     43  C   UNL     1      -7.446   3.443  -6.160  0.00  0.00    +0.000 C 
ENDBRANCH  40  42
ENDBRANCH   8  40
BRANCH  14  44
ATOM     44  O   UNL     1      -4.066   8.744  -9.143  0.00  0.00    +0.000 OA
ATOM     45  H   UNL     1      -4.344   8.972 -10.050  0.00  0.00    +0.000 HD
ENDBRANCH  14  44
TORSDOF 6
