REMARK  Name = Epinastine
REMARK  0 active torsions:
REMARK  status: ('A' for Active; 'I' for Inactive)
REMARK                            x       y       z     vdW  Elec       q    Type
REMARK                         _______ _______ _______ _____ _____    ______ ____
ROOT
ATOM      1  N   UNL     1       1.783   0.035  -0.495  0.00  0.00    +0.000 N 
ATOM      2  C   UNL     1       3.004  -0.461  -0.788  0.00  0.00    +0.000 C 
ATOM      3  N   UNL     1       3.844  -0.453   0.217  0.00  0.00    +0.000 NA
ATOM      4  C   UNL     1       5.123  -0.469  -0.516  0.00  0.00    +0.000 C 
ATOM      5  C   UNL     1       4.912  -1.125  -1.922  0.00  0.00    +0.000 C 
ATOM      6  N   UNL     1       3.478  -0.819  -2.050  0.00  0.00    +0.000 N 
ATOM      7  C   UNL     1       2.610  -1.479  -2.964  0.00  0.00    +0.000 A 
ATOM      8  C   UNL     1       1.418  -0.770  -3.200  0.00  0.00    +0.000 A 
ATOM      9  C   UNL     1       0.229  -1.342  -2.753  0.00  0.00    +0.000 A 
ATOM     10  C   UNL     1       0.232  -2.659  -2.303  0.00  0.00    +0.000 A 
ATOM     11  C   UNL     1       1.361  -3.452  -2.495  0.00  0.00    +0.000 A 
ATOM     12  C   UNL     1       2.560  -2.878  -2.924  0.00  0.00    +0.000 A 
ATOM     13  C   UNL     1       3.728  -3.762  -3.243  0.00  0.00    +0.000 C 
ATOM     14  C   UNL     1       4.912  -3.723  -2.318  0.00  0.00    +0.000 A 
ATOM     15  C   UNL     1       5.524  -4.963  -1.991  0.00  0.00    +0.000 A 
ATOM     16  C   UNL     1       6.690  -5.039  -1.228  0.00  0.00    +0.000 A 
ATOM     17  C   UNL     1       7.336  -3.874  -0.876  0.00  0.00    +0.000 A 
ATOM     18  C   UNL     1       6.778  -2.656  -1.248  0.00  0.00    +0.000 A 
ATOM     19  C   UNL     1       5.494  -2.540  -1.855  0.00  0.00    +0.000 A 
ATOM     20  H   UNL     1       1.663   0.110   0.508  0.00  0.00    +0.000 HD
ATOM     21  H   UNL     1       0.968  -0.381  -0.909  0.00  0.00    +0.000 HD
ENDROOT
TORSDOF 0
