REMARK  Name = Epinephrine
REMARK  7 active torsions:
REMARK  status: ('A' for Active; 'I' for Inactive)
REMARK    1  A    between atoms: C_1  and  N_2
REMARK    2  A    between atoms: N_2  and  C_3
REMARK    3  A    between atoms: C_3  and  C_4
REMARK    4  A    between atoms: C_4  and  O_5
REMARK    5  A    between atoms: C_4  and  C_6
REMARK    6  A    between atoms: C_8  and  O_9
REMARK    7  A    between atoms: C_10  and  O_11
REMARK                            x       y       z     vdW  Elec       q    Type
REMARK                         _______ _______ _______ _____ _____    ______ ____
ROOT
ATOM      1  C   UNL     1       4.948   2.657  -1.158  0.00  0.00    +0.000 A 
ATOM      2  C   UNL     1       5.963   2.893  -2.101  0.00  0.00    +0.000 A 
ATOM      3  C   UNL     1       6.167   4.126  -2.689  0.00  0.00    +0.000 A 
ATOM      4  C   UNL     1       5.516   5.232  -2.176  0.00  0.00    +0.000 A 
ATOM      5  C   UNL     1       4.648   5.085  -1.107  0.00  0.00    +0.000 A 
ATOM      6  C   UNL     1       4.342   3.807  -0.616  0.00  0.00    +0.000 A 
ENDROOT
BRANCH   3   7
ATOM      7  O   UNL     1       7.013   4.274  -3.751  0.00  0.00    +0.000 OA
ATOM      8  H   UNL     1       7.294   3.384  -4.039  0.00  0.00    +0.000 HD
ENDBRANCH   3   7
BRANCH   4   9
ATOM      9  O   UNL     1       5.772   6.460  -2.704  0.00  0.00    +0.000 OA
ATOM     10  H   UNL     1       6.419   6.287  -3.418  0.00  0.00    +0.000 HD
ENDBRANCH   4   9
BRANCH   1  11
ATOM     11  C   UNL     1       4.522   1.269  -0.658  0.00  0.00    +0.000 C 
BRANCH  11  12
ATOM     12  O   UNL     1       3.082   1.263  -0.541  0.00  0.00    +0.000 OA
ATOM     13  H   UNL     1       2.729   1.437  -1.432  0.00  0.00    +0.000 HD
ENDBRANCH  11  12
BRANCH  11  14
ATOM     14  C   UNL     1       4.885  -0.031  -1.480  0.00  0.00    +0.000 C 
BRANCH  14  16
ATOM     15  C   UNL     1       6.346  -1.012  -3.219  0.00  0.00    +0.000 C 
ATOM     16  N   UNL     1       5.941   0.145  -2.467  0.00  0.00    +0.000 NA
ATOM     17  H   UNL     1       5.565   0.800  -3.154  0.00  0.00    +0.000 HD
ENDBRANCH  14  16
ENDBRANCH  11  14
ENDBRANCH   1  11
TORSDOF 6
