REMARK  Name = Epirubicin
REMARK  13 active torsions:
REMARK  status: ('A' for Active; 'I' for Inactive)
REMARK    1  A    between atoms: C_1  and  O_2
REMARK    2  A    between atoms: O_2  and  C_3
REMARK    3  A    between atoms: C_12  and  O_13
REMARK    4  A    between atoms: C_17  and  O_18
REMARK    5  A    between atoms: C_17  and  C_31
REMARK    6  A    between atoms: C_20  and  O_21
REMARK    7  A    between atoms: O_21  and  C_22
REMARK    8  A    between atoms: C_24  and  N_25
REMARK    9  A    between atoms: C_26  and  O_27
REMARK   10  A    between atoms: C_28  and  C_29
REMARK   11  A    between atoms: C_31  and  C_33
REMARK   12  A    between atoms: C_33  and  O_34
REMARK   13  A    between atoms: C_35  and  O_36
REMARK                            x       y       z     vdW  Elec       q    Type
REMARK                         _______ _______ _______ _____ _____    ______ ____
ROOT
ATOM      1  C   UNL     1     -10.613   0.551  -4.196  0.00  0.00    +0.000 A 
ATOM      2  C   UNL     1     -11.590   0.957  -3.273  0.00  0.00    +0.000 A 
ATOM      3  C   UNL     1     -11.276   1.172  -1.927  0.00  0.00    +0.000 A 
ATOM      4  C   UNL     1      -9.974   0.983  -1.487  0.00  0.00    +0.000 A 
ATOM      5  C   UNL     1      -8.985   0.608  -2.403  0.00  0.00    +0.000 A 
ATOM      6  C   UNL     1      -9.293   0.428  -3.756  0.00  0.00    +0.000 A 
ATOM      7  C   UNL     1      -8.175   0.256  -4.693  0.00  0.00    +0.000 C 
ATOM      8  O   UNL     1      -8.259   0.497  -5.885  0.00  0.00    +0.000 OA
ATOM      9  C   UNL     1      -6.864  -0.137  -4.197  0.00  0.00    +0.000 A 
ATOM     10  C   UNL     1      -5.914  -0.573  -5.116  0.00  0.00    +0.000 A 
ATOM     11  C   UNL     1      -4.600  -0.759  -4.707  0.00  0.00    +0.000 A 
ATOM     12  C   UNL     1      -4.239  -0.533  -3.361  0.00  0.00    +0.000 A 
ATOM     13  C   UNL     1      -2.810  -0.728  -2.906  0.00  0.00    +0.000 C 
ATOM     14  C   UNL     1      -1.811  -0.780  -4.061  0.00  0.00    +0.000 C 
ATOM     15  C   UNL     1      -2.359  -1.771  -5.084  0.00  0.00    +0.000 C 
ATOM     16  C   UNL     1      -3.599  -1.184  -5.744  0.00  0.00    +0.000 C 
ATOM     17  C   UNL     1      -5.227  -0.172  -2.436  0.00  0.00    +0.000 A 
ATOM     18  C   UNL     1      -6.545   0.030  -2.852  0.00  0.00    +0.000 A 
ATOM     19  C   UNL     1      -7.605   0.447  -1.904  0.00  0.00    +0.000 C 
ATOM     20  O   UNL     1      -7.393   0.643  -0.720  0.00  0.00    +0.000 OA
ENDROOT
BRANCH   1  22
ATOM     21  C   UNL     1     -10.710  -0.768  -6.188  0.00  0.00    +0.000 C 
ATOM     22  O   UNL     1     -11.034   0.441  -5.494  0.00  0.00    +0.000 OA
ENDBRANCH   1  22
BRANCH  10  23
ATOM     23  O   UNL     1      -6.212  -0.847  -6.430  0.00  0.00    +0.000 OA
ATOM     24  H   UNL     1      -7.096  -0.468  -6.641  0.00  0.00    +0.000 HD
ENDBRANCH  10  23
BRANCH  14  25
ATOM     25  O   UNL     1      -1.624   0.529  -4.613  0.00  0.00    +0.000 OA
ATOM     26  H   UNL     1      -2.473   0.854  -4.984  0.00  0.00    +0.000 HD
ENDBRANCH  14  25
BRANCH  14  27
ATOM     27  C   UNL     1      -0.436  -1.171  -3.510  0.00  0.00    +0.000 C 
ATOM     28  O   UNL     1      -0.005  -0.701  -2.452  0.00  0.00    +0.000 OA
BRANCH  27  29
ATOM     29  C   UNL     1       0.426  -2.097  -4.363  0.00  0.00    +0.000 C 
BRANCH  29  30
ATOM     30  O   UNL     1       1.696  -2.363  -3.804  0.00  0.00    +0.000 OA
ATOM     31  H   UNL     1       2.059  -1.497  -3.536  0.00  0.00    +0.000 HD
ENDBRANCH  29  30
ENDBRANCH  27  29
ENDBRANCH  14  27
BRANCH  17  32
ATOM     32  O   UNL     1      -4.918   0.000  -1.119  0.00  0.00    +0.000 OA
ATOM     33  H   UNL     1      -3.979  -0.111  -0.920  0.00  0.00    +0.000 HD
ENDBRANCH  17  32
BRANCH  16  34
ATOM     34  O   UNL     1      -3.289  -0.050  -6.582  0.00  0.00    +0.000 OA
BRANCH  34  35
ATOM     35  C   UNL     1      -2.382  -0.400  -7.634  0.00  0.00    +0.000 C 
ATOM     36  C   UNL     1      -2.982  -1.509  -8.501  0.00  0.00    +0.000 C 
ATOM     37  C   UNL     1      -2.083  -1.934  -9.648  0.00  0.00    +0.000 C 
ATOM     38  C   UNL     1      -1.628  -0.667 -10.393  0.00  0.00    +0.000 C 
ATOM     39  C   UNL     1      -0.999   0.360  -9.430  0.00  0.00    +0.000 C 
ATOM     40  C   UNL     1       0.322  -0.135  -8.819  0.00  0.00    +0.000 C 
ATOM     41  O   UNL     1      -1.981   0.722  -8.427  0.00  0.00    +0.000 OA
BRANCH  37  42
ATOM     42  N   UNL     1      -1.019  -2.838  -9.178  0.00  0.00    +0.000 NA
ATOM     43  H   UNL     1      -0.577  -2.539  -8.314  0.00  0.00    +0.000 HD
ATOM     44  H   UNL     1      -0.279  -2.903  -9.876  0.00  0.00    +0.000 HD
ENDBRANCH  37  42
BRANCH  38  45
ATOM     45  O   UNL     1      -2.780  -0.077 -11.022  0.00  0.00    +0.000 OA
ATOM     46  H   UNL     1      -3.324   0.333 -10.320  0.00  0.00    +0.000 HD
ENDBRANCH  38  45
ENDBRANCH  34  35
ENDBRANCH  16  34
TORSDOF 11
