REMARK  Name = Eplerenone
REMARK  5 active torsions:
REMARK  status: ('A' for Active; 'I' for Inactive)
REMARK    1  A    between atoms: C_11  and  C_12
REMARK    2  A    between atoms: C_19  and  C_29
REMARK    3  A    between atoms: C_27  and  C_28
REMARK    4  A    between atoms: C_29  and  O_31
REMARK    5  A    between atoms: O_31  and  C_32
REMARK                            x       y       z     vdW  Elec       q    Type
REMARK                         _______ _______ _______ _____ _____    ______ ____
ROOT
ATOM      1  C   UNL     1       1.839   0.222  -0.044  0.00  0.00    +0.000 C 
ATOM      2  C   UNL     1       2.414   1.798   0.267  0.00  0.00    +0.000 C 
ATOM      3  C   UNL     1       4.225   1.945  -0.332  0.00  0.00    +0.000 C 
ATOM      4  C   UNL     1       4.277   0.249  -1.598  0.00  0.00    +0.000 C 
ATOM      5  C   UNL     1       5.502  -0.736  -1.508  0.00  0.00    +0.000 C 
ATOM      6  C   UNL     1       5.783  -1.226  -2.863  0.00  0.00    +0.000 C 
ATOM      7  C   UNL     1       5.395  -0.138  -3.765  0.00  0.00    +0.000 C 
ATOM      8  O   UNL     1       5.843   0.103  -4.864  0.00  0.00    +0.000 OA
ATOM      9  O   UNL     1       4.371   0.510  -3.228  0.00  0.00    +0.000 OA
ATOM     10  C   UNL     1       2.636  -0.348  -1.525  0.00  0.00    +0.000 C 
ATOM     11  C   UNL     1       1.662   0.063  -2.656  0.00  0.00    +0.000 C 
ATOM     12  C   UNL     1       3.452   0.802  -1.364  0.00  0.00    +0.000 C 
ATOM     13  C   UNL     1       4.204  -0.023   0.323  0.00  0.00    +0.000 C 
ATOM     14  O   UNL     1       3.981  -1.632   0.115  0.00  0.00    +0.000 OA
ATOM     15  C   UNL     1       3.579  -0.913   1.211  0.00  0.00    +0.000 C 
ATOM     16  C   UNL     1       2.114  -0.701   1.171  0.00  0.00    +0.000 C 
ATOM     17  C   UNL     1       1.675  -0.209   2.671  0.00  0.00    +0.000 C 
ATOM     18  C   UNL     1       2.175  -1.152   4.032  0.00  0.00    +0.000 C 
ATOM     19  C   UNL     1       3.955  -1.250   3.953  0.00  0.00    +0.000 C 
ATOM     20  C   UNL     1       4.888  -1.487   4.906  0.00  0.00    +0.000 C 
ATOM     21  C   UNL     1       6.350  -1.592   4.496  0.00  0.00    +0.000 C 
ATOM     22  O   UNL     1       7.217  -1.086   5.207  0.00  0.00    +0.000 OA
ATOM     23  C   UNL     1       6.722  -2.316   3.207  0.00  0.00    +0.000 C 
ATOM     24  C   UNL     1       5.890  -1.821   2.051  0.00  0.00    +0.000 C 
ATOM     25  C   UNL     1       4.383  -1.518   2.414  0.00  0.00    +0.000 C 
ATOM     26  C   UNL     1       3.513  -2.735   2.400  0.00  0.00    +0.000 C 
ENDROOT
BRANCH  17  27
ATOM     27  C   UNL     1       2.477   1.033   2.993  0.00  0.00    +0.000 C 
ATOM     28  O   UNL     1       3.595   1.275   2.549  0.00  0.00    +0.000 OA
BRANCH  27  29
ATOM     29  O   UNL     1       1.884   1.861   3.868  0.00  0.00    +0.000 OA
ATOM     30  C   UNL     1       2.680   3.044   4.013  0.00  0.00    +0.000 C 
ENDBRANCH  27  29
ENDBRANCH  17  27
TORSDOF 2
