REMARK  Name = Epoprostenol
REMARK  14 active torsions:
REMARK  status: ('A' for Active; 'I' for Inactive)
REMARK    1  A    between atoms: C_4  and  O_5
REMARK    2  A    between atoms: C_6  and  C_7
REMARK    3  A    between atoms: C_8  and  C_9
REMARK    4  A    between atoms: C_9  and  O_10
REMARK    5  A    between atoms: C_9  and  C_11
REMARK    6  A    between atoms: C_11  and  C_12
REMARK    7  A    between atoms: C_12  and  C_13
REMARK    8  A    between atoms: C_13  and  C_14
REMARK    9  A    between atoms: C_14  and  C_15
REMARK   10  A    between atoms: C_21  and  C_22
REMARK   11  A    between atoms: C_22  and  C_23
REMARK   12  A    between atoms: C_23  and  C_24
REMARK   13  A    between atoms: C_24  and  C_25
REMARK   14  A    between atoms: C_25  and  O_26
REMARK                            x       y       z     vdW  Elec       q    Type
REMARK                         _______ _______ _______ _____ _____    ______ ____
ROOT
ATOM      1  C   UNL     1       2.022  -0.008   0.011  0.00  0.00    +0.000 C 
ATOM      2  C   UNL     1       2.540   1.399  -0.211  0.00  0.00    +0.000 C 
ATOM      3  C   UNL     1       3.998   1.204  -0.608  0.00  0.00    +0.000 C 
ATOM      4  C   UNL     1       4.108  -0.219  -1.214  0.00  0.00    +0.000 C 
ATOM      5  C   UNL     1       2.725  -0.882  -1.015  0.00  0.00    +0.000 C 
ATOM      6  C   UNL     1       2.808  -2.232  -0.325  0.00  0.00    +0.000 C 
ATOM      7  C   UNL     1       2.625  -1.848   1.110  0.00  0.00    +0.000 C 
ATOM      8  O   UNL     1       2.433  -0.489   1.295  0.00  0.00    +0.000 OA
ATOM      9  C   UNL     1       2.594  -2.695   2.144  0.00  0.00    +0.000 C 
ENDROOT
BRANCH   3  10
ATOM     10  O   UNL     1       4.857   1.327   0.522  0.00  0.00    +0.000 OA
ATOM     11  H   UNL     1       4.565   0.680   1.188  0.00  0.00    +0.000 HD
ENDBRANCH   3  10
BRANCH   4  12
ATOM     12  C   UNL     1       4.510  -0.266  -2.664  0.00  0.00    +0.000 C 
ATOM     13  C   UNL     1       4.321   0.739  -3.531  0.00  0.00    +0.000 C 
BRANCH  13  14
ATOM     14  C   UNL     1       4.795   0.734  -4.942  0.00  0.00    +0.000 C 
BRANCH  14  15
ATOM     15  O   UNL     1       4.153  -0.335  -5.620  0.00  0.00    +0.000 OA
ATOM     16  H   UNL     1       3.196  -0.177  -5.556  0.00  0.00    +0.000 HD
ENDBRANCH  14  15
BRANCH  14  17
ATOM     17  C   UNL     1       4.450   2.067  -5.603  0.00  0.00    +0.000 C 
BRANCH  17  18
ATOM     18  C   UNL     1       4.903   2.072  -7.053  0.00  0.00    +0.000 C 
BRANCH  18  19
ATOM     19  C   UNL     1       4.550   3.393  -7.715  0.00  0.00    +0.000 C 
BRANCH  19  20
ATOM     20  C   UNL     1       5.002   3.384  -9.168  0.00  0.00    +0.000 C 
ATOM     21  C   UNL     1       4.652   4.698  -9.837  0.00  0.00    +0.000 C 
ENDBRANCH  19  20
ENDBRANCH  18  19
ENDBRANCH  17  18
ENDBRANCH  14  17
ENDBRANCH  13  14
ENDBRANCH   4  12
BRANCH   9  22
ATOM     22  C   UNL     1       2.384  -2.240   3.562  0.00  0.00    +0.000 C 
BRANCH  22  23
ATOM     23  C   UNL     1       2.378  -3.429   4.518  0.00  0.00    +0.000 C 
BRANCH  23  24
ATOM     24  C   UNL     1       2.179  -3.002   5.967  0.00  0.00    +0.000 C 
BRANCH  24  25
ATOM     25  C   UNL     1       2.163  -4.125   6.980  0.00  0.00    +0.000 C 
ATOM     26  O   UNL     1       2.010  -3.912   8.180  0.00  0.00    +0.000 OA
BRANCH  25  27
ATOM     27  O   UNL     1       2.322  -5.380   6.519  0.00  0.00    +0.000 OA
ATOM     28  H   UNL     1       2.441  -5.497   5.560  0.00  0.00    +0.000 HD
ENDBRANCH  25  27
ENDBRANCH  24  25
ENDBRANCH  23  24
ENDBRANCH  22  23
ENDBRANCH   9  22
TORSDOF 13
