REMARK  Name = Eprosartan
REMARK  13 active torsions:
REMARK  status: ('A' for Active; 'I' for Inactive)
REMARK    1  A    between atoms: C_1  and  C_2
REMARK    2  A    between atoms: C_2  and  C_3
REMARK    3  A    between atoms: C_3  and  C_4
REMARK    4  A    between atoms: C_4  and  C_5
REMARK    5  A    between atoms: C_8  and  C_9
REMARK    6  A    between atoms: C_10  and  C_11
REMARK    7  A    between atoms: C_10  and  C_17
REMARK    8  A    between atoms: C_11  and  C_12
REMARK    9  A    between atoms: C_17  and  O_18
REMARK   10  A    between atoms: N_20  and  C_21
REMARK   11  A    between atoms: C_21  and  C_22
REMARK   12  A    between atoms: C_25  and  C_28
REMARK   13  A    between atoms: C_28  and  O_29
REMARK                            x       y       z     vdW  Elec       q    Type
REMARK                         _______ _______ _______ _____ _____    ______ ____
ROOT
ATOM      1  C   UNL     1       4.718  -2.407   1.494  0.00  0.00    +0.000 A 
ATOM      2  N   UNL     1       4.662  -2.393   2.795  0.00  0.00    +0.000 NA
ATOM      3  C   UNL     1       4.669  -3.669   3.135  0.00  0.00    +0.000 A 
ATOM      4  C   UNL     1       4.760  -4.552   2.111  0.00  0.00    +0.000 A 
ATOM      5  N   UNL     1       4.562  -3.716   1.011  0.00  0.00    +0.000 N 
ENDROOT
BRANCH   4   6
ATOM      6  C   UNL     1       4.860  -5.965   2.195  0.00  0.00    +0.000 C 
ATOM      7  C   UNL     1       5.439  -6.619   3.249  0.00  0.00    +0.000 C 
BRANCH   7   8
ATOM      8  C   UNL     1       5.262  -8.123   3.378  0.00  0.00    +0.000 C 
ATOM      9  O   UNL     1       5.722  -8.750   4.319  0.00  0.00    +0.000 OA
BRANCH   8  10
ATOM     10  O   UNL     1       4.543  -8.774   2.439  0.00  0.00    +0.000 OA
ATOM     11  H   UNL     1       4.143  -8.301   1.699  0.00  0.00    +0.000 HD
ENDBRANCH   8  10
ENDBRANCH   7   8
BRANCH   7  12
ATOM     12  C   UNL     1       6.318  -6.114   4.481  0.00  0.00    +0.000 C 
BRANCH  12  13
ATOM     13  C   UNL     1       6.903  -4.688   4.590  0.00  0.00    +0.000 A 
ATOM     14  C   UNL     1       6.523  -3.618   5.418  0.00  0.00    +0.000 A 
ATOM     15  C   UNL     1       6.759  -2.349   4.752  0.00  0.00    +0.000 A 
ATOM     16  C   UNL     1       7.451  -2.521   3.568  0.00  0.00    +0.000 A 
ATOM     17  S   UNL     1       8.021  -4.132   3.395  0.00  0.00    +0.000 S 
ENDBRANCH  12  13
ENDBRANCH   7  12
ENDBRANCH   4   6
BRANCH   1  18
ATOM     18  C   UNL     1       4.466  -1.081   0.906  0.00  0.00    +0.000 C 
BRANCH  18  19
ATOM     19  C   UNL     1       2.959  -0.941   1.082  0.00  0.00    +0.000 C 
BRANCH  19  21
ATOM     20  C   UNL     1       0.901   0.099   0.209  0.00  0.00    +0.000 C 
ATOM     21  C   UNL     1       2.409   0.214   0.313  0.00  0.00    +0.000 C 
ENDBRANCH  19  21
ENDBRANCH  18  19
ENDBRANCH   1  18
BRANCH   5  22
ATOM     22  C   UNL     1       3.861  -4.187  -0.183  0.00  0.00    +0.000 C 
BRANCH  22  23
ATOM     23  C   UNL     1       3.500  -3.141  -1.200  0.00  0.00    +0.000 A 
ATOM     24  C   UNL     1       2.152  -2.819  -1.401  0.00  0.00    +0.000 A 
ATOM     25  C   UNL     1       1.778  -1.738  -2.208  0.00  0.00    +0.000 A 
ATOM     26  C   UNL     1       2.748  -0.861  -2.702  0.00  0.00    +0.000 A 
ATOM     27  C   UNL     1       4.104  -1.183  -2.497  0.00  0.00    +0.000 A 
ATOM     28  C   UNL     1       4.477  -2.356  -1.819  0.00  0.00    +0.000 A 
BRANCH  26  29
ATOM     29  C   UNL     1       2.434   0.558  -3.127  0.00  0.00    +0.000 C 
ATOM     30  O   UNL     1       3.295   1.347  -3.400  0.00  0.00    +0.000 OA
BRANCH  29  31
ATOM     31  O   UNL     1       1.126   0.929  -3.083  0.00  0.00    +0.000 OA
ATOM     32  H   UNL     1       0.462   0.324  -2.726  0.00  0.00    +0.000 HD
ENDBRANCH  29  31
ENDBRANCH  26  29
ENDBRANCH  22  23
ENDBRANCH   5  22
TORSDOF 12
