REMARK  Name = Eravacycline
REMARK  11 active torsions:
REMARK  status: ('A' for Active; 'I' for Inactive)
REMARK    1  A    between atoms: C_8  and  N_9
REMARK    2  A    between atoms: C_10  and  C_12
REMARK    3  A    between atoms: C_12  and  N_13
REMARK    4  A    between atoms: C_18  and  O_19
REMARK    5  A    between atoms: C_24  and  O_25
REMARK    6  A    between atoms: C_26  and  O_27
REMARK    7  A    between atoms: C_30  and  C_31
REMARK    8  A    between atoms: C_34  and  O_35
REMARK    9  A    between atoms: C_36  and  N_37
REMARK   10  A    between atoms: N_37  and  C_38
REMARK   11  A    between atoms: N_37  and  C_39
REMARK                            x       y       z     vdW  Elec       q    Type
REMARK                         _______ _______ _______ _____ _____    ______ ____
ROOT
ATOM      1  C   UNL     1       2.265   0.033   0.019  0.00  0.00    +0.000 C 
ATOM      2  C   UNL     1       2.690  -0.683   1.296  0.00  0.00    +0.000 C 
ATOM      3  C   UNL     1       2.420  -2.141   1.257  0.00  0.00    +0.000 A 
ATOM      4  C   UNL     1       2.200  -2.863   2.426  0.00  0.00    +0.000 A 
ATOM      5  F   UNL     1       2.123  -2.204   3.593  0.00  0.00    +0.000 F 
ATOM      6  C   UNL     1       2.075  -4.257   2.416  0.00  0.00    +0.000 A 
ATOM      7  C   UNL     1       2.173  -4.968   1.205  0.00  0.00    +0.000 A 
ATOM      8  C   UNL     1       2.381  -4.208   0.036  0.00  0.00    +0.000 A 
ATOM      9  C   UNL     1       2.515  -2.823   0.055  0.00  0.00    +0.000 A 
ATOM     10  C   UNL     1       2.799  -2.118  -1.233  0.00  0.00    +0.000 C 
ATOM     11  O   UNL     1       3.139  -2.680  -2.273  0.00  0.00    +0.000 OA
ATOM     12  C   UNL     1       2.715  -0.649  -1.240  0.00  0.00    +0.000 C 
ATOM     13  C   UNL     1       3.068  -0.003  -2.373  0.00  0.00    +0.000 C 
ATOM     14  C   UNL     1       3.019   1.494  -2.506  0.00  0.00    +0.000 C 
ATOM     15  C   UNL     1       4.332   2.103  -2.959  0.00  0.00    +0.000 C 
ATOM     16  O   UNL     1       5.408   1.507  -2.817  0.00  0.00    +0.000 OA
ATOM     17  C   UNL     1       4.354   3.577  -3.258  0.00  0.00    +0.000 C 
ATOM     18  C   UNL     1       4.462   4.049  -2.015  0.00  0.00    +0.000 C 
ATOM     19  C   UNL     1       3.092   3.725  -1.044  0.00  0.00    +0.000 C 
ATOM     20  C   UNL     1       2.690   2.194  -1.174  0.00  0.00    +0.000 C 
ATOM     21  C   UNL     1       2.898   1.426   0.113  0.00  0.00    +0.000 C 
ENDROOT
BRANCH  17  22
ATOM     22  C   UNL     1       3.270   4.536  -3.673  0.00  0.00    +0.000 C 
ATOM     23  N   UNL     1       3.513   5.897  -3.495  0.00  0.00    +0.000 N 
ATOM     24  O   UNL     1       2.144   4.178  -4.031  0.00  0.00    +0.000 OA
ATOM     25  H   UNL     1       4.329   6.208  -2.968  0.00  0.00    +0.000 HD
ATOM     26  H   UNL     1       2.698   6.442  -3.237  0.00  0.00    +0.000 HD
ENDBRANCH  17  22
BRANCH   7  27
ATOM     27  N   UNL     1       2.048  -6.398   1.247  0.00  0.00    +0.000 N 
ATOM     28  C   UNL     1       2.139  -7.241   0.156  0.00  0.00    +0.000 C 
ATOM     29  O   UNL     1       2.352  -6.865  -0.995  0.00  0.00    +0.000 OA
ATOM     30  H   UNL     1       1.891  -6.814   2.158  0.00  0.00    +0.000 HD
BRANCH  28  31
ATOM     31  C   UNL     1       1.981  -8.733   0.338  0.00  0.00    +0.000 C 
BRANCH  31  32
ATOM     32  N   UNL     1       2.128  -9.302  -1.025  0.00  0.00    +0.000 NA
ATOM     33  C   UNL     1       0.929  -9.968  -1.512  0.00  0.00    +0.000 C 
ATOM     34  C   UNL     1       1.138 -11.347  -0.938  0.00  0.00    +0.000 C 
ATOM     35  C   UNL     1       2.616 -11.593  -1.222  0.00  0.00    +0.000 C 
ATOM     36  C   UNL     1       3.255 -10.213  -1.178  0.00  0.00    +0.000 C 
ENDBRANCH  31  32
ENDBRANCH  28  31
ENDBRANCH   7  27
BRANCH  19  37
ATOM     37  N   UNL     1       1.706   4.350  -0.981  0.00  0.00    +0.000 NA
ATOM     38  C   UNL     1       0.473   3.865  -1.685  0.00  0.00    +0.000 C 
ATOM     39  C   UNL     1       1.557   5.759  -0.742  0.00  0.00    +0.000 C 
ENDBRANCH  19  37
BRANCH   8  40
ATOM     40  O   UNL     1       2.435  -4.667  -1.234  0.00  0.00    +0.000 OA
ATOM     41  H   UNL     1       2.482  -5.628  -1.301  0.00  0.00    +0.000 HD
ENDBRANCH   8  40
BRANCH  13  42
ATOM     42  O   UNL     1       3.433  -0.647  -3.553  0.00  0.00    +0.000 OA
ATOM     43  H   UNL     1       3.468  -1.619  -3.369  0.00  0.00    +0.000 HD
ENDBRANCH  13  42
BRANCH  14  44
ATOM     44  O   UNL     1       2.018   1.701  -3.497  0.00  0.00    +0.000 OA
ATOM     45  H   UNL     1       2.339   1.244  -4.301  0.00  0.00    +0.000 HD
ENDBRANCH  14  44
BRANCH  18  46
ATOM     46  O   UNL     1       5.374   5.163  -1.918  0.00  0.00    +0.000 OA
ATOM     47  H   UNL     1       5.970   5.141  -2.729  0.00  0.00    +0.000 HD
ENDBRANCH  18  46
TORSDOF 9
