REMARK  Name = Erdafitinib
REMARK  14 active torsions:
REMARK  status: ('A' for Active; 'I' for Inactive)
REMARK    1  A    between atoms: C_1  and  O_2
REMARK    2  A    between atoms: O_2  and  C_3
REMARK    3  A    between atoms: C_5  and  N_11
REMARK    4  A    between atoms: C_7  and  O_8
REMARK    5  A    between atoms: O_8  and  C_9
REMARK    6  A    between atoms: N_11  and  C_12
REMARK    7  A    between atoms: N_11  and  C_18
REMARK    8  A    between atoms: C_12  and  C_13
REMARK    9  A    between atoms: C_13  and  N_14
REMARK   10  A    between atoms: N_14  and  C_15
REMARK   11  A    between atoms: C_15  and  C_16
REMARK   12  A    between atoms: C_15  and  C_17
REMARK   13  A    between atoms: C_24  and  C_28
REMARK   14  A    between atoms: N_30  and  C_31
REMARK                            x       y       z     vdW  Elec       q    Type
REMARK                         _______ _______ _______ _____ _____    ______ ____
ROOT
ATOM      1  N   UNL     1       6.188  -0.109  -2.963  0.00  0.00    +0.000 N 
ENDROOT
BRANCH   1   2
ATOM      2  C   UNL     1       7.116   0.477  -3.933  0.00  0.00    +0.000 A 
ATOM      3  C   UNL     1       7.498  -0.299  -5.024  0.00  0.00    +0.000 A 
ATOM      4  C   UNL     1       8.266   0.257  -6.045  0.00  0.00    +0.000 A 
ATOM      5  C   UNL     1       8.645   1.587  -6.067  0.00  0.00    +0.000 A 
ATOM      6  N   UNL     1       9.016   2.022  -7.266  0.00  0.00    +0.000 NA
ATOM      7  C   UNL     1       9.217   3.347  -7.390  0.00  0.00    +0.000 A 
ATOM      8  C   UNL     1       9.514   4.185  -6.347  0.00  0.00    +0.000 A 
ATOM      9  N   UNL     1       9.089   3.762  -5.098  0.00  0.00    +0.000 NA
ATOM     10  C   UNL     1       8.486   2.451  -4.962  0.00  0.00    +0.000 A 
ATOM     11  C   UNL     1       7.651   1.828  -3.909  0.00  0.00    +0.000 A 
BRANCH   8  12
ATOM     12  C   UNL     1      10.096   5.521  -6.692  0.00  0.00    +0.000 A 
ATOM     13  C   UNL     1      10.925   6.311  -5.911  0.00  0.00    +0.000 A 
ATOM     14  N   UNL     1      11.109   7.501  -6.579  0.00  0.00    +0.000 N 
ATOM     15  C   UNL     1      11.480   8.771  -5.991  0.00  0.00    +0.000 C 
ATOM     16  N   UNL     1      10.739   7.436  -7.868  0.00  0.00    +0.000 NA
ATOM     17  C   UNL     1      10.164   6.228  -7.953  0.00  0.00    +0.000 A 
ENDBRANCH   8  12
ENDBRANCH   1   2
BRANCH   1  20
ATOM     18  C   UNL     1       2.845   0.527  -1.196  0.00  0.00    +0.000 A 
ATOM     19  C   UNL     1       3.989  -0.114  -1.676  0.00  0.00    +0.000 A 
ATOM     20  C   UNL     1       4.882   0.388  -2.651  0.00  0.00    +0.000 A 
ATOM     21  C   UNL     1       4.360   1.499  -3.319  0.00  0.00    +0.000 A 
ATOM     22  C   UNL     1       3.192   2.161  -2.882  0.00  0.00    +0.000 A 
ATOM     23  C   UNL     1       2.464   1.699  -1.783  0.00  0.00    +0.000 A 
BRANCH  18  25
ATOM     24  C   UNL     1       0.866  -0.014  -0.013  0.00  0.00    +0.000 C 
ATOM     25  O   UNL     1       2.286  -0.026  -0.075  0.00  0.00    +0.000 OA
ENDBRANCH  18  25
BRANCH  22  26
ATOM     26  O   UNL     1       2.875   3.296  -3.582  0.00  0.00    +0.000 OA
ATOM     27  C   UNL     1       1.795   4.044  -3.037  0.00  0.00    +0.000 C 
ENDBRANCH  22  26
ENDBRANCH   1  20
BRANCH   1  28
ATOM     28  C   UNL     1       6.809  -1.358  -2.309  0.00  0.00    +0.000 C 
BRANCH  28  29
ATOM     29  C   UNL     1       5.958  -2.073  -1.238  0.00  0.00    +0.000 C 
BRANCH  29  30
ATOM     30  N   UNL     1       6.346  -3.234  -0.427  0.00  0.00    +0.000 NA
ATOM     31  H   UNL     1       7.156  -2.972   0.138  0.00  0.00    +0.000 HD
BRANCH  30  32
ATOM     32  C   UNL     1       5.236  -3.575   0.521  0.00  0.00    +0.000 C 
ATOM     33  C   UNL     1       3.892  -3.951  -0.133  0.00  0.00    +0.000 C 
ATOM     34  C   UNL     1       5.702  -4.748   1.379  0.00  0.00    +0.000 C 
ENDBRANCH  30  32
ENDBRANCH  29  30
ENDBRANCH  28  29
ENDBRANCH   1  28
TORSDOF 9
