REMARK  Name = Erdosteine
REMARK  6 active torsions:
REMARK  status: ('A' for Active; 'I' for Inactive)
REMARK    1  A    between atoms: O_1  and  C_2
REMARK    2  A    between atoms: C_2  and  C_4
REMARK    3  A    between atoms: C_4  and  S_5
REMARK    4  A    between atoms: S_5  and  C_6
REMARK    5  A    between atoms: C_6  and  C_7
REMARK    6  A    between atoms: N_9  and  C_10
REMARK                            x       y       z     vdW  Elec       q    Type
REMARK                         _______ _______ _______ _____ _____    ______ ____
ROOT
ATOM      1  C   UNL     1       7.326   2.123   0.904  0.00  0.00    +0.000 C 
ATOM      2  O   UNL     1       7.785   1.270   0.147  0.00  0.00    +0.000 OA
ATOM      3  N   UNL     1       8.186   2.959   1.607  0.00  0.00    +0.000 N 
ATOM      4  H   UNL     1       7.837   3.857   1.917  0.00  0.00    +0.000 HD
ENDROOT
BRANCH   3   5
ATOM      5  C   UNL     1       9.641   2.773   1.438  0.00  0.00    +0.000 C 
ATOM      6  C   UNL     1      10.440   3.762   2.298  0.00  0.00    +0.000 C 
ATOM      7  C   UNL     1      11.880   3.277   2.396  0.00  0.00    +0.000 C 
ATOM      8  S   UNL     1      11.782   1.488   2.555  0.00  0.00    +0.000 S 
ATOM      9  C   UNL     1      10.131   1.394   1.941  0.00  0.00    +0.000 C 
ATOM     10  O   UNL     1       9.521   0.347   1.982  0.00  0.00    +0.000 OA
ENDBRANCH   3   5
BRANCH   1  11
ATOM     11  C   UNL     1       5.804   2.342   1.112  0.00  0.00    +0.000 C 
BRANCH  11  12
ATOM     12  S   UNL     1       4.934   0.893   0.389  0.00  0.00    +0.000 S 
BRANCH  12  13
ATOM     13  C   UNL     1       3.140   1.223   0.549  0.00  0.00    +0.000 C 
BRANCH  13  14
ATOM     14  C   UNL     1       2.378   0.034  -0.074  0.00  0.00    +0.000 C 
ATOM     15  O   UNL     1       2.882  -0.951  -0.593  0.00  0.00    +0.000 OA
BRANCH  14  16
ATOM     16  O   UNL     1       1.027   0.140  -0.020  0.00  0.00    +0.000 OA
ATOM     17  H   UNL     1       0.656   0.935   0.399  0.00  0.00    +0.000 HD
ENDBRANCH  14  16
ENDBRANCH  13  14
ENDBRANCH  12  13
ENDBRANCH  11  12
ENDBRANCH   1  11
TORSDOF 6
