REMARK  Name = Ergocalciferol
REMARK  11 active torsions:
REMARK  status: ('A' for Active; 'I' for Inactive)
REMARK    1  A    between atoms: C_1  and  C_2
REMARK    2  A    between atoms: C_2  and  C_3
REMARK    3  A    between atoms: C_2  and  C_4
REMARK    4  A    between atoms: C_4  and  C_5
REMARK    5  A    between atoms: C_4  and  C_6
REMARK    6  A    between atoms: C_7  and  C_8
REMARK    7  A    between atoms: C_8  and  C_9
REMARK    8  A    between atoms: C_8  and  C_10
REMARK    9  A    between atoms: C_20  and  C_21
REMARK   10  A    between atoms: C_22  and  C_23
REMARK   11  A    between atoms: C_26  and  O_27
REMARK                            x       y       z     vdW  Elec       q    Type
REMARK                         _______ _______ _______ _____ _____    ______ ____
ROOT
ATOM      1  C   UNL     1       7.279   2.432  -3.251  0.00  0.00    +0.000 C 
ATOM      2  C   UNL     1       6.502   3.785  -3.305  0.00  0.00    +0.000 C 
ATOM      3  C   UNL     1       7.512   4.896  -3.556  0.00  0.00    +0.000 C 
ATOM      4  C   UNL     1       8.755   4.128  -3.944  0.00  0.00    +0.000 C 
ATOM      5  C   UNL     1      10.096   4.766  -3.862  0.00  0.00    +0.000 C 
ATOM      6  C   UNL     1      11.132   3.726  -4.161  0.00  0.00    +0.000 C 
ATOM      7  C   UNL     1      11.169   2.365  -3.538  0.00  0.00    +0.000 C 
ATOM      8  C   UNL     1       9.766   1.805  -3.605  0.00  0.00    +0.000 C 
ATOM      9  C   UNL     1       8.746   2.846  -3.071  0.00  0.00    +0.000 C 
ATOM     10  C   UNL     1       9.106   3.186  -1.604  0.00  0.00    +0.000 C 
ATOM     11  C   UNL     1      10.368   6.074  -3.718  0.00  0.00    +0.000 C 
ENDROOT
BRANCH  11  12
ATOM     12  C   UNL     1      11.695   6.623  -3.941  0.00  0.00    +0.000 C 
ATOM     13  C   UNL     1      12.433   6.507  -5.071  0.00  0.00    +0.000 C 
ATOM     14  C   UNL     1      13.823   7.086  -5.142  0.00  0.00    +0.000 C 
ATOM     15  C   UNL     1      14.012   7.881  -6.440  0.00  0.00    +0.000 C 
ATOM     16  C   UNL     1      13.617   7.061  -7.669  0.00  0.00    +0.000 C 
ATOM     17  C   UNL     1      12.144   6.666  -7.599  0.00  0.00    +0.000 C 
ATOM     18  C   UNL     1      11.997   5.871  -6.340  0.00  0.00    +0.000 C 
ATOM     19  C   UNL     1      11.934   4.576  -6.618  0.00  0.00    +0.000 C 
BRANCH  15  20
ATOM     20  O   UNL     1      15.369   8.295  -6.562  0.00  0.00    +0.000 OA
ATOM     21  H   UNL     1      15.923   7.495  -6.561  0.00  0.00    +0.000 HD
ENDBRANCH  15  20
ENDBRANCH  11  12
BRANCH   1  22
ATOM     22  C   UNL     1       6.760   1.477  -2.169  0.00  0.00    +0.000 C 
ATOM     23  C   UNL     1       7.300   0.055  -2.315  0.00  0.00    +0.000 C 
BRANCH  22  25
ATOM     24  C   UNL     1       4.572   0.869  -1.206  0.00  0.00    +0.000 C 
ATOM     25  C   UNL     1       5.268   1.437  -2.192  0.00  0.00    +0.000 C 
BRANCH  24  26
ATOM     26  C   UNL     1       3.075   0.868  -1.190  0.00  0.00    +0.000 C 
ATOM     27  C   UNL     1       2.582   2.314  -1.054  0.00  0.00    +0.000 C 
BRANCH  26  29
ATOM     28  C   UNL     1       1.031  -0.062  -0.026  0.00  0.00    +0.000 C 
ATOM     29  C   UNL     1       2.559  -0.045  -0.057  0.00  0.00    +0.000 C 
ATOM     30  C   UNL     1       3.068  -1.487  -0.212  0.00  0.00    +0.000 C 
ENDBRANCH  26  29
ENDBRANCH  24  26
ENDBRANCH  22  25
ENDBRANCH   1  22
TORSDOF 6
