REMARK  Name = Ergotamine
REMARK  7 active torsions:
REMARK  status: ('A' for Active; 'I' for Inactive)
REMARK    1  A    between atoms: C_9  and  C_10
REMARK    2  A    between atoms: C_10  and  C_11
REMARK    3  A    between atoms: C_20  and  C_21
REMARK    4  A    between atoms: C_20  and  N_22
REMARK    5  A    between atoms: C_23  and  C_25
REMARK    6  A    between atoms: N_27  and  C_28
REMARK    7  A    between atoms: C_44  and  O_45
REMARK                            x       y       z     vdW  Elec       q    Type
REMARK                         _______ _______ _______ _____ _____    ______ ____
ROOT
ATOM      1  C   UNL     1       2.096   0.195  -0.119  0.00  0.00    +0.000 C 
ATOM      2  C   UNL     1       2.534  -1.280  -0.151  0.00  0.00    +0.000 C 
ATOM      3  C   UNL     1       3.164  -1.598   1.183  0.00  0.00    +0.000 C 
ATOM      4  C   UNL     1       2.967  -0.384   2.046  0.00  0.00    +0.000 C 
ATOM      5  N   UNL     1       2.545   0.668   1.157  0.00  0.00    +0.000 N 
ATOM      6  C   UNL     1       3.134   1.882   1.149  0.00  0.00    +0.000 C 
ATOM      7  O   UNL     1       4.180   2.016   1.773  0.00  0.00    +0.000 OA
ATOM      8  C   UNL     1       2.660   2.911   0.146  0.00  0.00    +0.000 C 
ATOM      9  N   UNL     1       1.700   2.153  -0.837  0.00  0.00    +0.000 N 
ATOM     10  C   UNL     1       1.013   2.855  -1.866  0.00  0.00    +0.000 C 
ATOM     11  O   UNL     1      -0.028   2.344  -2.266  0.00  0.00    +0.000 OA
ATOM     12  C   UNL     1       1.542   4.366  -1.988  0.00  0.00    +0.000 C 
ATOM     13  C   UNL     1      -0.045   5.113  -1.355  0.00  0.00    +0.000 C 
ATOM     14  O   UNL     1       2.786   2.891  -2.066  0.00  0.00    +0.000 OA
ATOM     15  C   UNL     1       2.500   1.230  -1.484  0.00  0.00    +0.000 C 
ENDROOT
BRANCH  12  16
ATOM     16  N   UNL     1       1.429   6.313  -2.281  0.00  0.00    +0.000 N 
ATOM     17  C   UNL     1       1.742   7.780  -1.111  0.00  0.00    +0.000 C 
ATOM     18  O   UNL     1       2.365   6.934  -0.391  0.00  0.00    +0.000 OA
ATOM     19  H   UNL     1       0.498   6.249  -2.933  0.00  0.00    +0.000 HD
BRANCH  17  20
ATOM     20  C   UNL     1       1.637   9.855  -0.428  0.00  0.00    +0.000 C 
ATOM     21  C   UNL     1       2.712  10.605   1.200  0.00  0.00    +0.000 C 
ATOM     22  N   UNL     1       1.747  11.592   1.594  0.00  0.00    +0.000 NA
ATOM     23  C   UNL     1       0.405  11.403   1.910  0.00  0.00    +0.000 C 
ATOM     24  C   UNL     1       2.268  12.456   0.326  0.00  0.00    +0.000 C 
ATOM     25  C   UNL     1       1.655  13.772  -0.173  0.00  0.00    +0.000 C 
ATOM     26  C   UNL     1       2.677  14.798   1.187  0.00  0.00    +0.000 A 
ATOM     27  C   UNL     1       3.388  15.369   0.100  0.00  0.00    +0.000 A 
ATOM     28  N   UNL     1       3.977  15.977   1.150  0.00  0.00    +0.000 N 
ATOM     29  C   UNL     1       3.468  17.136   1.374  0.00  0.00    +0.000 A 
ATOM     30  C   UNL     1       4.155  18.334   1.146  0.00  0.00    +0.000 A 
ATOM     31  C   UNL     1       3.156  19.114   0.987  0.00  0.00    +0.000 A 
ATOM     32  C   UNL     1       1.781  17.889   0.564  0.00  0.00    +0.000 A 
ATOM     33  C   UNL     1       1.203  15.994   0.401  0.00  0.00    +0.000 A 
ATOM     34  C   UNL     1       2.164  16.232   1.428  0.00  0.00    +0.000 A 
ATOM     35  C   UNL     1       1.376  13.742   0.074  0.00  0.00    +0.000 C 
ATOM     36  C   UNL     1       1.184  11.975  -0.557  0.00  0.00    +0.000 C 
ATOM     37  H   UNL     1       4.254  15.668   2.048  0.00  0.00    +0.000 HD
ENDBRANCH  17  20
ENDBRANCH  12  16
BRANCH  15  38
ATOM     38  O   UNL     1       1.956   0.373  -2.530  0.00  0.00    +0.000 OA
ATOM     39  H   UNL     1       2.304  -0.556  -2.535  0.00  0.00    +0.000 HD
ENDBRANCH  15  38
BRANCH   8  40
ATOM     40  C   UNL     1       1.849   4.044   0.645  0.00  0.00    +0.000 C 
BRANCH  40  41
ATOM     41  C   UNL     1       2.434   4.806   1.733  0.00  0.00    +0.000 A 
ATOM     42  C   UNL     1       3.685   4.563   2.243  0.00  0.00    +0.000 A 
ATOM     43  C   UNL     1       4.044   5.102   3.444  0.00  0.00    +0.000 A 
ATOM     44  C   UNL     1       3.328   6.156   3.944  0.00  0.00    +0.000 A 
ATOM     45  C   UNL     1       2.123   6.491   3.366  0.00  0.00    +0.000 A 
ATOM     46  C   UNL     1       1.674   5.819   2.258  0.00  0.00    +0.000 A 
ENDBRANCH  40  41
ENDBRANCH   8  40
TORSDOF 5
