REMARK  Name = Ergosterol
REMARK  11 active torsions:
REMARK  status: ('A' for Active; 'I' for Inactive)
REMARK    1  A    between atoms: C_1  and  C_2
REMARK    2  A    between atoms: C_2  and  C_3
REMARK    3  A    between atoms: C_2  and  C_4
REMARK    4  A    between atoms: C_4  and  C_5
REMARK    5  A    between atoms: C_4  and  C_6
REMARK    6  A    between atoms: C_7  and  C_8
REMARK    7  A    between atoms: C_8  and  C_9
REMARK    8  A    between atoms: C_8  and  C_10
REMARK    9  A    between atoms: C_19  and  O_20
REMARK   10  A    between atoms: C_23  and  C_24
REMARK   11  A    between atoms: C_28  and  C_29
REMARK                            x       y       z     vdW  Elec       q    Type
REMARK                         _______ _______ _______ _____ _____    ______ ____
ROOT
ATOM      1  C   UNL     1       7.747   0.197   1.825  0.00  0.00    +0.000 C 
ATOM      2  C   UNL     1       9.058   0.205   0.607  0.00  0.00    +0.000 C 
ATOM      3  C   UNL     1       8.151   0.443  -0.568  0.00  0.00    +0.000 C 
ATOM      4  C   UNL     1       7.089  -0.647  -0.248  0.00  0.00    +0.000 C 
ATOM      5  C   UNL     1       5.724  -0.073  -0.540  0.00  0.00    +0.000 C 
ATOM      6  C   UNL     1       5.583   0.885  -1.491  0.00  0.00    +0.000 C 
ATOM      7  C   UNL     1       4.343   1.226  -2.059  0.00  0.00    +0.000 C 
ATOM      8  C   UNL     1       3.161   0.894  -1.438  0.00  0.00    +0.000 C 
ATOM      9  C   UNL     1       1.910   1.521  -1.999  0.00  0.00    +0.000 C 
ATOM     10  C   UNL     1       0.672   1.255  -1.134  0.00  0.00    +0.000 C 
ATOM     11  C   UNL     1       0.092   0.002  -0.571  0.00  0.00    +0.000 C 
ATOM     12  C   UNL     1       1.567  -0.728   0.131  0.00  0.00    +0.000 C 
ATOM     13  C   UNL     1       3.126   0.061  -0.152  0.00  0.00    +0.000 C 
ATOM     14  C   UNL     1       3.359   1.144   0.858  0.00  0.00    +0.000 C 
ATOM     15  C   UNL     1       4.491  -0.797   0.035  0.00  0.00    +0.000 C 
ATOM     16  C   UNL     1       4.740  -1.402   1.451  0.00  0.00    +0.000 C 
ATOM     17  C   UNL     1       6.121  -2.017   1.609  0.00  0.00    +0.000 C 
ATOM     18  C   UNL     1       7.314  -1.143   1.246  0.00  0.00    +0.000 C 
ATOM     19  C   UNL     1       8.573  -2.082   1.642  0.00  0.00    +0.000 C 
ENDROOT
BRANCH   1  20
ATOM     20  C   UNL     1       7.246   0.332   3.430  0.00  0.00    +0.000 C 
ATOM     21  C   UNL     1       7.037  -0.937   4.318  0.00  0.00    +0.000 C 
BRANCH  20  23
ATOM     22  C   UNL     1       5.286   2.174   3.210  0.00  0.00    +0.000 C 
ATOM     23  C   UNL     1       5.791   1.017   3.678  0.00  0.00    +0.000 C 
BRANCH  22  24
ATOM     24  C   UNL     1       3.916   2.873   3.540  0.00  0.00    +0.000 C 
ATOM     25  C   UNL     1       2.628   2.031   3.455  0.00  0.00    +0.000 C 
BRANCH  24  27
ATOM     26  C   UNL     1       2.385   4.775   2.636  0.00  0.00    +0.000 C 
ATOM     27  C   UNL     1       3.779   4.131   2.602  0.00  0.00    +0.000 C 
ATOM     28  C   UNL     1       4.830   5.167   2.998  0.00  0.00    +0.000 C 
ENDBRANCH  24  27
ENDBRANCH  22  24
ENDBRANCH  20  23
ENDBRANCH   1  20
BRANCH  10  29
ATOM     29  O   UNL     1       0.755   1.880   0.146  0.00  0.00    +0.000 OA
ATOM     30  H   UNL     1       0.897   2.832   0.114  0.00  0.00    +0.000 HD
ENDBRANCH  10  29
TORSDOF 5
