REMARK  Name = Ergometrine
REMARK  6 active torsions:
REMARK  status: ('A' for Active; 'I' for Inactive)
REMARK    1  A    between atoms: C_15  and  C_19
REMARK    2  A    between atoms: N_17  and  C_18
REMARK    3  A    between atoms: N_21  and  CA_22
REMARK    4  A    between atoms: CA_22  and  CB_23
REMARK    5  A    between atoms: CA_22  and  C_24
REMARK    6  A    between atoms: C_24  and  O_25
REMARK                            x       y       z     vdW  Elec       q    Type
REMARK                         _______ _______ _______ _____ _____    ______ ____
ROOT
ATOM      1  C   UNK A   0       1.978   0.044   0.005  0.00  0.00    +0.000 C 
ATOM      2  C   UNK A   0       2.384   0.353   1.492  0.00  0.00    +0.000 C 
ATOM      3  C   UNK A   0       2.065  -0.801   2.371  0.00  0.00    +0.000 A 
ATOM      4  C   UNK A   0       1.788  -0.919   3.712  0.00  0.00    +0.000 A 
ATOM      5  N   UNK A   0       1.608  -2.260   3.977  0.00  0.00    +0.000 N 
ATOM      6  C   UNK A   0       1.755  -3.002   2.824  0.00  0.00    +0.000 A 
ATOM      7  C   UNK A   0       1.682  -4.373   2.568  0.00  0.00    +0.000 A 
ATOM      8  C   UNK A   0       1.878  -4.783   1.239  0.00  0.00    +0.000 A 
ATOM      9  C   UNK A   0       2.120  -3.865   0.210  0.00  0.00    +0.000 A 
ATOM     10  C   UNK A   0       2.194  -2.496   0.482  0.00  0.00    +0.000 A 
ATOM     11  C   UNK A   0       2.017  -2.094   1.813  0.00  0.00    +0.000 A 
ATOM     12  C   UNK A   0       2.391  -1.384  -0.474  0.00  0.00    +0.000 C 
ATOM     13  C   UNK A   0       2.881  -1.611  -1.709  0.00  0.00    +0.000 C 
ATOM     14  C   UNK A   0       2.956  -0.516  -2.744  0.00  0.00    +0.000 C 
ATOM     15  C   UNK A   0       2.161   0.730  -2.301  0.00  0.00    +0.000 C 
ATOM     16  N   UNK A   0       2.504   1.099  -0.913  0.00  0.00    +0.000 NA
ATOM     17  C   UNK A   0       1.960   2.419  -0.600  0.00  0.00    +0.000 C 
ATOM     18  H   UNK A   0       1.401  -2.647   4.887  0.00  0.00    +0.000 HD
ENDROOT
BRANCH  14  19
ATOM     19  C   UNK A   0       2.372  -1.041  -4.059  0.00  0.00    +0.000 C 
ATOM     20  O   UNK A   0       1.218  -0.804  -4.418  0.00  0.00    +0.000 OA
ATOM     21  N   ALA A   1       3.235  -1.820  -4.811  0.00  0.00    +0.000 N 
ATOM     22  H   ALA A   1       4.156  -2.025  -4.442  0.00  0.00    +0.000 HD
BRANCH  21  23
ATOM     23  CA  ALA A   1       2.850  -2.345  -6.123  0.00  0.00    +0.000 C 
ATOM     24  CB  ALA A   1       2.533  -1.208  -7.100  0.00  0.00    +0.000 C 
BRANCH  23  25
ATOM     25  C   ALA A   1       3.948  -3.246  -6.723  0.00  0.00    +0.000 C 
BRANCH  25  26
ATOM     26  O   ALA A   1       3.573  -3.788  -7.986  0.00  0.00    +0.000 OA
ATOM     27  H   ALA A   1       2.741  -4.278  -7.868  0.00  0.00    +0.000 HD
ENDBRANCH  25  26
ENDBRANCH  23  25
ENDBRANCH  21  23
ENDBRANCH  14  19
TORSDOF 4
