REMARK  Name = Erlotinib
REMARK  12 active torsions:
REMARK  status: ('A' for Active; 'I' for Inactive)
REMARK    1  A    between atoms: C_1  and  O_2
REMARK    2  A    between atoms: O_2  and  C_3
REMARK    3  A    between atoms: C_3  and  C_4
REMARK    4  A    between atoms: C_4  and  O_5
REMARK    5  A    between atoms: O_5  and  C_6
REMARK    6  A    between atoms: C_11  and  O_12
REMARK    7  A    between atoms: O_12  and  C_13
REMARK    8  A    between atoms: C_13  and  C_14
REMARK    9  A    between atoms: C_14  and  O_15
REMARK   10  A    between atoms: O_15  and  C_16
REMARK   11  A    between atoms: N_18  and  C_19
REMARK   12  A    between atoms: C_21  and  C_25
REMARK                            x       y       z     vdW  Elec       q    Type
REMARK                         _______ _______ _______ _____ _____    ______ ____
ROOT
ATOM      1  C   UNL     1       6.142  -1.496  -2.590  0.00  0.00    +0.000 A 
ATOM      2  C   UNL     1       6.762  -1.267  -3.849  0.00  0.00    +0.000 A 
ATOM      3  C   UNL     1       8.146  -1.372  -4.085  0.00  0.00    +0.000 A 
ATOM      4  C   UNL     1       8.959  -1.717  -3.015  0.00  0.00    +0.000 A 
ATOM      5  C   UNL     1       8.330  -1.849  -1.767  0.00  0.00    +0.000 A 
ATOM      6  C   UNL     1       6.968  -1.867  -1.528  0.00  0.00    +0.000 A 
ATOM      7  C   UNL     1      10.347  -1.887  -3.254  0.00  0.00    +0.000 A 
ATOM      8  N   UNL     1      11.253  -2.330  -2.255  0.00  0.00    +0.000 N 
ATOM      9  N   UNL     1      10.872  -1.622  -4.465  0.00  0.00    +0.000 NA
ATOM     10  C   UNL     1      10.002  -1.238  -5.416  0.00  0.00    +0.000 A 
ATOM     11  N   UNL     1       8.668  -1.121  -5.293  0.00  0.00    +0.000 NA
ATOM     12  H   UNL     1      12.222  -2.307  -2.548  0.00  0.00    +0.000 HD
ENDROOT
BRANCH   8  13
ATOM     13  C   UNL     1      10.998  -2.840  -0.964  0.00  0.00    +0.000 A 
ATOM     14  C   UNL     1      10.105  -3.919  -0.784  0.00  0.00    +0.000 A 
ATOM     15  C   UNL     1       9.570  -4.209   0.477  0.00  0.00    +0.000 A 
ATOM     16  C   UNL     1       9.959  -3.457   1.584  0.00  0.00    +0.000 A 
ATOM     17  C   UNL     1      10.899  -2.433   1.435  0.00  0.00    +0.000 A 
ATOM     18  C   UNL     1      11.428  -2.132   0.170  0.00  0.00    +0.000 A 
BRANCH  15  19
ATOM     19  C   UNL     1       8.574  -5.233   0.621  0.00  0.00    +0.000 C 
ATOM     20  C   UNL     1       7.785  -6.116   0.761  0.00  0.00    +0.000 C 
ENDBRANCH  15  19
ENDBRANCH   8  13
BRANCH   1  21
ATOM     21  O   UNL     1       4.768  -1.368  -2.652  0.00  0.00    +0.000 OA
BRANCH  21  22
ATOM     22  C   UNL     1       4.161  -0.593  -1.629  0.00  0.00    +0.000 C 
BRANCH  22  23
ATOM     23  C   UNL     1       2.664  -0.615  -1.507  0.00  0.00    +0.000 C 
BRANCH  23  25
ATOM     24  C   UNL     1       0.929  -0.053  -0.063  0.00  0.00    +0.000 C 
ATOM     25  O   UNL     1       2.329   0.015  -0.254  0.00  0.00    +0.000 OA
ENDBRANCH  23  25
ENDBRANCH  22  23
ENDBRANCH  21  22
ENDBRANCH   1  21
BRANCH   6  26
ATOM     26  O   UNL     1       6.793  -2.332  -0.233  0.00  0.00    +0.000 OA
BRANCH  26  27
ATOM     27  C   UNL     1       5.496  -2.186   0.227  0.00  0.00    +0.000 C 
BRANCH  27  28
ATOM     28  C   UNL     1       5.017  -2.536   1.602  0.00  0.00    +0.000 C 
BRANCH  28  29
ATOM     29  O   UNL     1       3.586  -2.345   1.651  0.00  0.00    +0.000 OA
ATOM     30  C   UNL     1       3.128  -2.594   2.972  0.00  0.00    +0.000 C 
ENDBRANCH  28  29
ENDBRANCH  27  28
ENDBRANCH  26  27
ENDBRANCH   6  26
TORSDOF 10
