REMARK  Name = Erythrityl tetranitrate
REMARK  11 active torsions:
REMARK  status: ('A' for Active; 'I' for Inactive)
REMARK    1  A    between atoms: N_2  and  O_4
REMARK    2  A    between atoms: O_4  and  C_5
REMARK    3  A    between atoms: C_5  and  C_6
REMARK    4  A    between atoms: C_6  and  O_7
REMARK    5  A    between atoms: C_6  and  C_11
REMARK    6  A    between atoms: O_7  and  N_8
REMARK    7  A    between atoms: C_11  and  C_12
REMARK    8  A    between atoms: C_11  and  O_17
REMARK    9  A    between atoms: C_12  and  O_13
REMARK   10  A    between atoms: O_13  and  N_14
REMARK   11  A    between atoms: O_17  and  N_18
REMARK                            x       y       z     vdW  Elec       q    Type
REMARK                         _______ _______ _______ _____ _____    ______ ____
ROOT
ATOM      1  C   UNL     1       7.140   1.587  -1.798  0.00  0.00    +0.000 C 
ENDROOT
BRANCH   1   2
ATOM      2  C   UNL     1       8.351   0.859  -1.134  0.00  0.00    +0.000 C 
BRANCH   2   3
ATOM      3  O   UNL     1       9.264   1.874  -0.802  0.00  0.00    +0.000 OA
BRANCH   3   5
ATOM      4  O   UNL     1      11.209   2.519  -0.068  0.00  0.00    +0.000 OA
ATOM      5  N   UNL     1      10.476   1.542  -0.206  0.00  0.00    +0.000 N 
ATOM      6  O   UNL     1      10.631   0.368   0.121  0.00  0.00    +0.000 OA
ENDBRANCH   3   5
ENDBRANCH   2   3
ENDBRANCH   1   2
BRANCH   1   7
ATOM      7  O   UNL     1       7.232   1.999  -3.181  0.00  0.00    +0.000 OA
BRANCH   7   8
ATOM      8  N   UNL     1       8.258   2.912  -3.568  0.00  0.00    +0.000 N 
ATOM      9  O   UNL     1       9.252   2.986  -2.873  0.00  0.00    +0.000 OA
ATOM     10  O   UNL     1       7.989   3.514  -4.610  0.00  0.00    +0.000 OA
ENDBRANCH   7   8
ENDBRANCH   1   7
BRANCH   1  11
ATOM     11  C   UNL     1       6.513   2.691  -0.866  0.00  0.00    +0.000 C 
BRANCH  11  12
ATOM     12  C   UNL     1       4.952   2.584  -0.861  0.00  0.00    +0.000 C 
BRANCH  12  13
ATOM     13  O   UNL     1       4.537   1.683   0.171  0.00  0.00    +0.000 OA
BRANCH  13  14
ATOM     14  N   UNL     1       3.120   1.617   0.323  0.00  0.00    +0.000 N 
ATOM     15  O   UNL     1       2.439   2.253  -0.481  0.00  0.00    +0.000 OA
ATOM     16  O   UNL     1       2.776   0.888   1.251  0.00  0.00    +0.000 OA
ENDBRANCH  13  14
ENDBRANCH  12  13
ENDBRANCH  11  12
BRANCH  11  17
ATOM     17  O   UNL     1       6.805   4.008  -1.355  0.00  0.00    +0.000 OA
BRANCH  17  18
ATOM     18  N   UNL     1       8.024   4.597  -0.916  0.00  0.00    +0.000 N 
ATOM     19  O   UNL     1       8.579   4.088   0.051  0.00  0.00    +0.000 OA
ATOM     20  O   UNL     1       8.338   5.569  -1.598  0.00  0.00    +0.000 OA
ENDBRANCH  17  18
ENDBRANCH  11  17
ENDBRANCH   1  11
TORSDOF 11
