REMARK  Name = Escitalopram
REMARK  8 active torsions:
REMARK  status: ('A' for Active; 'I' for Inactive)
REMARK    1  A    between atoms: C_1  and  N_2
REMARK    2  A    between atoms: N_2  and  C_3
REMARK    3  A    between atoms: N_2  and  C_4
REMARK    4  A    between atoms: C_4  and  C_5
REMARK    5  A    between atoms: C_5  and  C_6
REMARK    6  A    between atoms: C_6  and  C_7
REMARK    7  A    between atoms: C_7  and  C_18
REMARK    8  A    between atoms: C_14  and  C_16
REMARK                            x       y       z     vdW  Elec       q    Type
REMARK                         _______ _______ _______ _____ _____    ______ ____
ROOT
ATOM      1  C   UNL     1       6.527   2.056  -1.832  0.00  0.00    +0.000 C 
ATOM      2  O   UNL     1       7.081   1.012  -0.948  0.00  0.00    +0.000 OA
ATOM      3  C   UNL     1       7.865   1.572   0.134  0.00  0.00    +0.000 C 
ATOM      4  C   UNL     1       7.878   3.027  -0.102  0.00  0.00    +0.000 A 
ATOM      5  C   UNL     1       7.102   3.332  -1.215  0.00  0.00    +0.000 A 
ATOM      6  C   UNL     1       7.001   4.665  -1.586  0.00  0.00    +0.000 A 
ATOM      7  C   UNL     1       7.677   5.655  -0.837  0.00  0.00    +0.000 A 
ATOM      8  C   UNL     1       8.445   5.322   0.293  0.00  0.00    +0.000 A 
ATOM      9  C   UNL     1       8.545   3.984   0.665  0.00  0.00    +0.000 A 
ENDROOT
BRANCH   1  10
ATOM     10  C   UNL     1       4.974   1.954  -1.821  0.00  0.00    +0.000 A 
ATOM     11  C   UNL     1       4.258   2.212  -0.649  0.00  0.00    +0.000 A 
ATOM     12  C   UNL     1       2.875   1.995  -0.600  0.00  0.00    +0.000 A 
ATOM     13  C   UNL     1       2.166   1.677  -1.753  0.00  0.00    +0.000 A 
ATOM     14  F   UNL     1       0.848   1.456  -1.695  0.00  0.00    +0.000 F 
ATOM     15  C   UNL     1       2.810   1.566  -2.961  0.00  0.00    +0.000 A 
ATOM     16  C   UNL     1       4.199   1.600  -2.967  0.00  0.00    +0.000 A 
ENDBRANCH   1  10
BRANCH   8  17
ATOM     17  C   UNL     1       9.117   6.326   1.064  0.00  0.00    +0.000 C 
ATOM     18  N   UNL     1       9.670   7.125   1.713  0.00  0.00    +0.000 NA
ENDBRANCH   8  17
BRANCH   1  19
ATOM     19  C   UNL     1       6.975   1.710  -3.282  0.00  0.00    +0.000 C 
BRANCH  19  20
ATOM     20  C   UNL     1       8.181   2.434  -3.791  0.00  0.00    +0.000 C 
BRANCH  20  21
ATOM     21  C   UNL     1       8.367   2.209  -5.291  0.00  0.00    +0.000 C 
BRANCH  21  23
ATOM     22  C   UNL     1       9.754   2.731  -7.167  0.00  0.00    +0.000 C 
ATOM     23  N   UNL     1       9.510   3.003  -5.753  0.00  0.00    +0.000 NA
ATOM     24  C   UNL     1       9.280   4.440  -5.564  0.00  0.00    +0.000 C 
ENDBRANCH  21  23
ENDBRANCH  20  21
ENDBRANCH  19  20
ENDBRANCH   1  19
TORSDOF 6
