REMARK  Name = Esculin
REMARK  8 active torsions:
REMARK  status: ('A' for Active; 'I' for Inactive)
REMARK    1  A    between atoms: O_1  and  C_2
REMARK    2  A    between atoms: C_2  and  C_3
REMARK    3  A    between atoms: C_5  and  O_6
REMARK    4  A    between atoms: O_6  and  C_7
REMARK    5  A    between atoms: C_8  and  O_9
REMARK    6  A    between atoms: C_19  and  O_20
REMARK    7  A    between atoms: C_21  and  O_22
REMARK    8  A    between atoms: C_23  and  O_24
REMARK                            x       y       z     vdW  Elec       q    Type
REMARK                         _______ _______ _______ _____ _____    ______ ____
ROOT
ATOM      1  C   UNL     1       2.899  -0.923   1.006  0.00  0.00    +0.000 C 
ATOM      2  O   UNL     1       3.553  -0.065   1.952  0.00  0.00    +0.000 OA
ATOM      3  C   UNL     1       4.610   0.738   1.398  0.00  0.00    +0.000 C 
ATOM      4  C   UNL     1       5.709  -0.096   0.680  0.00  0.00    +0.000 C 
ATOM      5  C   UNL     1       5.077  -1.165  -0.231  0.00  0.00    +0.000 C 
ATOM      6  C   UNL     1       3.910  -1.924   0.438  0.00  0.00    +0.000 C 
ENDROOT
BRANCH   4   7
ATOM      7  O   UNL     1       6.636   0.739  -0.029  0.00  0.00    +0.000 OA
ATOM      8  H   UNL     1       6.176   1.203  -0.744  0.00  0.00    +0.000 HD
ENDBRANCH   4   7
BRANCH   5   9
ATOM      9  O   UNL     1       6.079  -2.104  -0.643  0.00  0.00    +0.000 OA
ATOM     10  H   UNL     1       6.440  -2.531   0.157  0.00  0.00    +0.000 HD
ENDBRANCH   5   9
BRANCH   6  11
ATOM     11  O   UNL     1       3.271  -2.804  -0.489  0.00  0.00    +0.000 OA
ATOM     12  H   UNL     1       2.942  -2.284  -1.243  0.00  0.00    +0.000 HD
ENDBRANCH   6  11
BRANCH   1  13
ATOM     13  C   UNL     1       1.733  -1.639   1.719  0.00  0.00    +0.000 C 
BRANCH  13  14
ATOM     14  O   UNL     1       0.527  -0.938   1.408  0.00  0.00    +0.000 OA
ATOM     15  H   UNL     1      -0.208  -1.434   1.810  0.00  0.00    +0.000 HD
ENDBRANCH  13  14
ENDBRANCH   1  13
BRANCH   3  16
ATOM     16  O   UNL     1       5.166   1.593   2.417  0.00  0.00    +0.000 OA
BRANCH  16  17
ATOM     17  C   UNL     1       5.710   1.063   3.562  0.00  0.00    +0.000 A 
ATOM     18  C   UNL     1       5.820  -0.293   3.912  0.00  0.00    +0.000 A 
ATOM     19  C   UNL     1       6.435  -0.703   5.075  0.00  0.00    +0.000 A 
ATOM     20  C   UNL     1       6.917   0.249   5.942  0.00  0.00    +0.000 A 
ATOM     21  O   UNL     1       7.481  -0.258   7.119  0.00  0.00    +0.000 OA
ATOM     22  C   UNL     1       7.957   0.595   8.087  0.00  0.00    +0.000 A 
ATOM     23  O   UNL     1       8.432   0.178   9.142  0.00  0.00    +0.000 OA
ATOM     24  C   UNL     1       7.875   2.037   7.801  0.00  0.00    +0.000 A 
ATOM     25  C   UNL     1       7.349   2.529   6.671  0.00  0.00    +0.000 A 
ATOM     26  C   UNL     1       6.822   1.610   5.670  0.00  0.00    +0.000 A 
ATOM     27  C   UNL     1       6.223   2.018   4.465  0.00  0.00    +0.000 A 
BRANCH  18  28
ATOM     28  O   UNL     1       5.324  -1.347   3.207  0.00  0.00    +0.000 OA
ATOM     29  H   UNL     1       4.496  -1.003   2.832  0.00  0.00    +0.000 HD
ENDBRANCH  18  28
ENDBRANCH  16  17
ENDBRANCH   3  16
TORSDOF 8
