REMARK  Name = Esketamine
REMARK  3 active torsions:
REMARK  status: ('A' for Active; 'I' for Inactive)
REMARK    1  A    between atoms: C_1  and  N_2
REMARK    2  A    between atoms: N_2  and  C_3
REMARK    3  A    between atoms: C_3  and  C_10
REMARK                            x       y       z     vdW  Elec       q    Type
REMARK                         _______ _______ _______ _____ _____    ______ ____
ROOT
ATOM      1  C   UNL     1       2.930   0.537  -1.191  0.00  0.00    +0.000 C 
ATOM      2  C   UNL     1       2.986   2.081  -0.947  0.00  0.00    +0.000 C 
ATOM      3  C   UNL     1       3.523   2.857  -2.150  0.00  0.00    +0.000 C 
ATOM      4  C   UNL     1       4.949   2.427  -2.422  0.00  0.00    +0.000 C 
ATOM      5  C   UNL     1       5.034   0.946  -2.736  0.00  0.00    +0.000 C 
ATOM      6  C   UNL     1       4.267   0.027  -1.811  0.00  0.00    +0.000 C 
ATOM      7  O   UNL     1       4.604  -1.169  -1.806  0.00  0.00    +0.000 OA
ENDROOT
BRANCH   1   8
ATOM      8  C   UNL     1       2.504  -0.131   0.145  0.00  0.00    +0.000 A 
ATOM      9  C   UNL     1       1.190   0.136   0.613  0.00  0.00    +0.000 A 
ATOM     10  C   UNL     1       0.668  -0.455   1.768  0.00  0.00    +0.000 A 
ATOM     11  C   UNL     1       1.432  -1.359   2.488  0.00  0.00    +0.000 A 
ATOM     12  C   UNL     1       2.738  -1.608   2.093  0.00  0.00    +0.000 A 
ATOM     13  C   UNL     1       3.297  -0.952   0.983  0.00  0.00    +0.000 A 
ATOM     14 CL   UNL     1       5.020  -1.129   0.918  0.00  0.00    +0.000 Cl
ENDBRANCH   1   8
BRANCH   1  16
ATOM     15  C   UNL     1       1.231  -0.851  -2.485  0.00  0.00    +0.000 C 
ATOM     16  N   UNL     1       1.946   0.395  -2.315  0.00  0.00    +0.000 NA
ATOM     17  H   UNL     1       1.301   1.177  -2.356  0.00  0.00    +0.000 HD
ENDBRANCH   1  16
TORSDOF 2
