REMARK  Name = Eslicarbazepine acetate
REMARK  3 active torsions:
REMARK  status: ('A' for Active; 'I' for Inactive)
REMARK    1  A    between atoms: C_1  and  C_2
REMARK    2  A    between atoms: C_2  and  O_4
REMARK    3  A    between atoms: O_4  and  C_5
REMARK                            x       y       z     vdW  Elec       q    Type
REMARK                         _______ _______ _______ _____ _____    ______ ____
ROOT
ATOM      1  C   UNL     1       4.540  -0.758  -0.922  0.00  0.00    +0.000 C 
ATOM      2  C   UNL     1       5.150   0.638  -1.127  0.00  0.00    +0.000 C 
ATOM      3  C   UNL     1       6.643   0.830  -1.184  0.00  0.00    +0.000 A 
ATOM      4  C   UNL     1       7.054   2.164  -1.408  0.00  0.00    +0.000 A 
ATOM      5  C   UNL     1       8.395   2.501  -1.535  0.00  0.00    +0.000 A 
ATOM      6  C   UNL     1       9.354   1.504  -1.438  0.00  0.00    +0.000 A 
ATOM      7  C   UNL     1       8.967   0.180  -1.208  0.00  0.00    +0.000 A 
ATOM      8  C   UNL     1       7.612  -0.180  -1.065  0.00  0.00    +0.000 A 
ATOM      9  N   UNL     1       7.290  -1.546  -0.778  0.00  0.00    +0.000 N 
ATOM     10  C   UNL     1       7.852  -2.579  -1.529  0.00  0.00    +0.000 C 
ATOM     11  N   UNL     1       7.499  -3.851  -1.191  0.00  0.00    +0.000 N 
ATOM     12  O   UNL     1       8.572  -2.436  -2.517  0.00  0.00    +0.000 OA
ATOM     13  C   UNL     1       6.461  -1.755   0.361  0.00  0.00    +0.000 A 
ATOM     14  C   UNL     1       7.011  -2.292   1.539  0.00  0.00    +0.000 A 
ATOM     15  C   UNL     1       6.208  -2.518   2.660  0.00  0.00    +0.000 A 
ATOM     16  C   UNL     1       4.848  -2.253   2.599  0.00  0.00    +0.000 A 
ATOM     17  C   UNL     1       4.298  -1.749   1.427  0.00  0.00    +0.000 A 
ATOM     18  C   UNL     1       5.094  -1.445   0.310  0.00  0.00    +0.000 A 
ATOM     19  H   UNL     1       6.872  -4.077  -0.435  0.00  0.00    +0.000 HD
ATOM     20  H   UNL     1       7.832  -4.593  -1.791  0.00  0.00    +0.000 HD
ENDROOT
BRANCH   1  21
ATOM     21  O   UNL     1       3.079  -0.694  -0.950  0.00  0.00    +0.000 OA
BRANCH  21  23
ATOM     22  C   UNL     1       0.965   0.018  -0.158  0.00  0.00    +0.000 C 
ATOM     23  C   UNL     1       2.446   0.148  -0.088  0.00  0.00    +0.000 C 
ATOM     24  O   UNL     1       2.986   0.888   0.730  0.00  0.00    +0.000 OA
ENDBRANCH  21  23
ENDBRANCH   1  21
TORSDOF 2
