REMARK  Name = Eslicarbazepine
REMARK  1 active torsions:
REMARK  status: ('A' for Active; 'I' for Inactive)
REMARK    1  A    between atoms: C_8  and  O_9
REMARK                            x       y       z     vdW  Elec       q    Type
REMARK                         _______ _______ _______ _____ _____    ______ ____
ROOT
ATOM      1  N   UNL     1       1.057   0.156   0.071  0.00  0.00    +0.000 N 
ATOM      2  C   UNL     1       2.409   0.132  -0.070  0.00  0.00    +0.000 C 
ATOM      3  O   UNL     1       2.990  -0.914   0.240  0.00  0.00    +0.000 OA
ATOM      4  N   UNL     1       3.059   1.251  -0.603  0.00  0.00    +0.000 N 
ATOM      5  C   UNL     1       2.794   2.640  -0.258  0.00  0.00    +0.000 A 
ATOM      6  C   UNL     1       3.749   3.690  -0.315  0.00  0.00    +0.000 A 
ATOM      7  C   UNL     1       5.222   3.579  -0.637  0.00  0.00    +0.000 C 
ATOM      8  C   UNL     1       5.832   2.190  -0.614  0.00  0.00    +0.000 C 
ATOM      9  C   UNL     1       5.266   1.432  -1.778  0.00  0.00    +0.000 A 
ATOM     10  C   UNL     1       3.937   0.991  -1.717  0.00  0.00    +0.000 A 
ATOM     11  C   UNL     1       3.422   0.270  -2.812  0.00  0.00    +0.000 A 
ATOM     12  C   UNL     1       4.193   0.032  -3.955  0.00  0.00    +0.000 A 
ATOM     13  C   UNL     1       5.503   0.484  -4.013  0.00  0.00    +0.000 A 
ATOM     14  C   UNL     1       6.036   1.174  -2.931  0.00  0.00    +0.000 A 
ATOM     15  C   UNL     1       3.364   5.022  -0.002  0.00  0.00    +0.000 A 
ATOM     16  C   UNL     1       2.067   5.346   0.359  0.00  0.00    +0.000 A 
ATOM     17  C   UNL     1       1.134   4.337   0.441  0.00  0.00    +0.000 A 
ATOM     18  C   UNL     1       1.506   3.018   0.172  0.00  0.00    +0.000 A 
ATOM     19  H   UNL     1       0.659  -0.733   0.352  0.00  0.00    +0.000 HD
ATOM     20  H   UNL     1       0.515   0.649  -0.624  0.00  0.00    +0.000 HD
ENDROOT
BRANCH   8  21
ATOM     21  O   UNL     1       7.257   2.314  -0.694  0.00  0.00    +0.000 OA
ATOM     22  H   UNL     1       7.460   2.829  -1.492  0.00  0.00    +0.000 HD
ENDBRANCH   8  21
TORSDOF 1
