REMARK  Name = Esmolol
REMARK  14 active torsions:
REMARK  status: ('A' for Active; 'I' for Inactive)
REMARK    1  A    between atoms: C_1  and  O_2
REMARK    2  A    between atoms: O_2  and  C_3
REMARK    3  A    between atoms: C_3  and  C_5
REMARK    4  A    between atoms: C_5  and  C_6
REMARK    5  A    between atoms: C_6  and  C_7
REMARK    6  A    between atoms: C_10  and  O_11
REMARK    7  A    between atoms: O_11  and  C_12
REMARK    8  A    between atoms: C_12  and  C_13
REMARK    9  A    between atoms: C_13  and  O_14
REMARK   10  A    between atoms: C_13  and  C_15
REMARK   11  A    between atoms: C_15  and  N_16
REMARK   12  A    between atoms: N_16  and  C_17
REMARK   13  A    between atoms: C_17  and  C_18
REMARK   14  A    between atoms: C_17  and  C_19
REMARK                            x       y       z     vdW  Elec       q    Type
REMARK                         _______ _______ _______ _____ _____    ______ ____
ROOT
ATOM      1  C   UNL     1       6.711   0.188  -2.556  0.00  0.00    +0.000 A 
ATOM      2  C   UNL     1       7.432   0.265  -3.756  0.00  0.00    +0.000 A 
ATOM      3  C   UNL     1       8.824   0.098  -3.754  0.00  0.00    +0.000 A 
ATOM      4  C   UNL     1       9.518  -0.055  -2.553  0.00  0.00    +0.000 A 
ATOM      5  C   UNL     1       8.808  -0.105  -1.361  0.00  0.00    +0.000 A 
ATOM      6  C   UNL     1       7.426   0.019  -1.365  0.00  0.00    +0.000 A 
ENDROOT
BRANCH   1   7
ATOM      7  C   UNL     1       5.198   0.214  -2.564  0.00  0.00    +0.000 C 
BRANCH   7   8
ATOM      8  C   UNL     1       4.565   0.068  -1.174  0.00  0.00    +0.000 C 
BRANCH   8   9
ATOM      9  C   UNL     1       3.067   0.066  -1.239  0.00  0.00    +0.000 C 
ATOM     10  O   UNL     1       2.409   0.156  -2.271  0.00  0.00    +0.000 OA
BRANCH   9  12
ATOM     11  C   UNL     1       1.113  -0.058   0.031  0.00  0.00    +0.000 C 
ATOM     12  O   UNL     1       2.542  -0.054   0.013  0.00  0.00    +0.000 OA
ENDBRANCH   9  12
ENDBRANCH   8   9
ENDBRANCH   7   8
ENDBRANCH   1   7
BRANCH   4  13
ATOM     13  O   UNL     1      10.880  -0.131  -2.645  0.00  0.00    +0.000 OA
BRANCH  13  14
ATOM     14  C   UNL     1      11.581  -0.124  -1.398  0.00  0.00    +0.000 C 
BRANCH  14  15
ATOM     15  C   UNL     1      13.089  -0.062  -1.657  0.00  0.00    +0.000 C 
BRANCH  15  16
ATOM     16  O   UNL     1      13.454   1.166  -2.302  0.00  0.00    +0.000 OA
ATOM     17  H   UNL     1      13.162   1.899  -1.736  0.00  0.00    +0.000 HD
ENDBRANCH  15  16
BRANCH  15  18
ATOM     18  C   UNL     1      13.825  -0.168  -0.316  0.00  0.00    +0.000 C 
BRANCH  18  19
ATOM     19  N   UNL     1      15.276  -0.168  -0.509  0.00  0.00    +0.000 NA
ATOM     20  H   UNL     1      15.537   0.670  -1.037  0.00  0.00    +0.000 HD
BRANCH  19  21
ATOM     21  C   UNL     1      16.011  -0.247   0.755  0.00  0.00    +0.000 C 
ATOM     22  C   UNL     1      15.687  -1.546   1.497  0.00  0.00    +0.000 C 
ATOM     23  C   UNL     1      17.510  -0.196   0.463  0.00  0.00    +0.000 C 
ENDBRANCH  19  21
ENDBRANCH  18  19
ENDBRANCH  15  18
ENDBRANCH  14  15
ENDBRANCH  13  14
ENDBRANCH   4  13
TORSDOF 11
