REMARK  Name = Esomeprazole
REMARK  9 active torsions:
REMARK  status: ('A' for Active; 'I' for Inactive)
REMARK    1  A    between atoms: C_1  and  O_2
REMARK    2  A    between atoms: O_2  and  C_3
REMARK    3  A    between atoms: C_8  and  S_10
REMARK    4  A    between atoms: S_10  and  C_12
REMARK    5  A    between atoms: C_12  and  C_13
REMARK    6  A    between atoms: C_16  and  C_17
REMARK    7  A    between atoms: C_18  and  O_19
REMARK    8  A    between atoms: O_19  and  C_20
REMARK    9  A    between atoms: C_21  and  C_22
REMARK                            x       y       z     vdW  Elec       q    Type
REMARK                         _______ _______ _______ _____ _____    ______ ____
ROOT
ATOM      1  S   UNL     1       7.367  -0.536  -5.778  0.00  0.00    +0.000 S 
ATOM      2  O   UNL     1       6.981  -1.909  -6.250  0.00  0.00    +0.000 OA
ENDROOT
BRANCH   1   8
ATOM      3  C   UNL     1       3.152   0.355  -1.255  0.00  0.00    +0.000 A 
ATOM      4  C   UNL     1       4.234  -0.432  -1.672  0.00  0.00    +0.000 A 
ATOM      5  C   UNL     1       4.867  -0.123  -2.889  0.00  0.00    +0.000 A 
ATOM      6  C   UNL     1       4.432   0.969  -3.628  0.00  0.00    +0.000 A 
ATOM      7  N   UNL     1       5.239   0.979  -4.745  0.00  0.00    +0.000 N 
ATOM      8  C   UNL     1       6.117  -0.073  -4.649  0.00  0.00    +0.000 A 
ATOM      9  N   UNL     1       5.911  -0.742  -3.530  0.00  0.00    +0.000 NA
ATOM     10  C   UNL     1       3.388   1.798  -3.213  0.00  0.00    +0.000 A 
ATOM     11  C   UNL     1       2.761   1.470  -2.002  0.00  0.00    +0.000 A 
ATOM     12  H   UNL     1       5.157   1.626  -5.508  0.00  0.00    +0.000 HD
BRANCH   3  14
ATOM     13  C   UNL     1       1.139   0.041  -0.078  0.00  0.00    +0.000 C 
ATOM     14  O   UNL     1       2.568   0.016  -0.060  0.00  0.00    +0.000 OA
ENDBRANCH   3  14
ENDBRANCH   1   8
BRANCH   1  15
ATOM     15  C   UNL     1       7.208   0.659  -7.153  0.00  0.00    +0.000 C 
BRANCH  15  16
ATOM     16  C   UNL     1       8.267   0.435  -8.226  0.00  0.00    +0.000 A 
ATOM     17  N   UNL     1       8.429  -0.846  -8.612  0.00  0.00    +0.000 NA
ATOM     18  C   UNL     1       9.354  -1.140  -9.540  0.00  0.00    +0.000 A 
ATOM     19  C   UNL     1      10.161  -0.210 -10.181  0.00  0.00    +0.000 A 
ATOM     20  C   UNL     1      11.105  -0.757 -11.208  0.00  0.00    +0.000 C 
ATOM     21  C   UNL     1       9.983   1.134  -9.817  0.00  0.00    +0.000 A 
ATOM     22  C   UNL     1       9.000   1.470  -8.836  0.00  0.00    +0.000 A 
ATOM     23  C   UNL     1       8.708   2.904  -8.473  0.00  0.00    +0.000 C 
BRANCH  21  24
ATOM     24  O   UNL     1      10.669   2.217 -10.315  0.00  0.00    +0.000 OA
ATOM     25  C   UNL     1      11.705   2.041 -11.270  0.00  0.00    +0.000 C 
ENDBRANCH  21  24
ENDBRANCH  15  16
ENDBRANCH   1  15
TORSDOF 5
