REMARK  Name = Estazolam
REMARK  1 active torsions:
REMARK  status: ('A' for Active; 'I' for Inactive)
REMARK    1  A    between atoms: C_15  and  C_16
REMARK                            x       y       z     vdW  Elec       q    Type
REMARK                         _______ _______ _______ _____ _____    ______ ____
ROOT
ATOM      1 CL   UNL     1       1.096   0.067  -0.068  0.00  0.00    +0.000 Cl
ATOM      2  C   UNL     1       2.815   0.070  -0.058  0.00  0.00    +0.000 A 
ATOM      3  C   UNL     1       3.510  -1.118  -0.277  0.00  0.00    +0.000 A 
ATOM      4  C   UNL     1       4.917  -1.136  -0.264  0.00  0.00    +0.000 A 
ATOM      5  C   UNL     1       5.608   0.064  -0.025  0.00  0.00    +0.000 A 
ATOM      6  C   UNL     1       4.899   1.262   0.170  0.00  0.00    +0.000 A 
ATOM      7  C   UNL     1       3.503   1.258   0.164  0.00  0.00    +0.000 A 
ATOM      8  N   UNL     1       7.014   0.090   0.059  0.00  0.00    +0.000 N 
ATOM      9  C   UNL     1       7.856   1.125  -0.246  0.00  0.00    +0.000 A 
ATOM     10  N   UNL     1       9.094   0.802   0.046  0.00  0.00    +0.000 NA
ATOM     11  N   UNL     1       9.079  -0.476   0.550  0.00  0.00    +0.000 NA
ATOM     12  C   UNL     1       7.833  -0.906   0.533  0.00  0.00    +0.000 A 
ATOM     13  C   UNL     1       7.303  -2.200   1.021  0.00  0.00    +0.000 C 
ATOM     14  N   UNL     1       6.645  -2.924  -0.063  0.00  0.00    +0.000 NA
ATOM     15  C   UNL     1       5.600  -2.424  -0.631  0.00  0.00    +0.000 C 
ENDROOT
BRANCH  15  16
ATOM     16  C   UNL     1       4.998  -3.181  -1.760  0.00  0.00    +0.000 A 
ATOM     17  C   UNL     1       4.873  -2.563  -3.009  0.00  0.00    +0.000 A 
ATOM     18  C   UNL     1       4.042  -3.131  -3.972  0.00  0.00    +0.000 A 
ATOM     19  C   UNL     1       3.425  -4.357  -3.720  0.00  0.00    +0.000 A 
ATOM     20  C   UNL     1       3.663  -5.034  -2.521  0.00  0.00    +0.000 A 
ATOM     21  C   UNL     1       4.427  -4.432  -1.521  0.00  0.00    +0.000 A 
ENDBRANCH  15  16
TORSDOF 1
