REMARK  Name = Estetrol
REMARK  5 active torsions:
REMARK  status: ('A' for Active; 'I' for Inactive)
REMARK    1  A    between atoms: C_3  and  O_4
REMARK    2  A    between atoms: C_5  and  O_6
REMARK    3  A    between atoms: C_7  and  O_8
REMARK    4  A    between atoms: C_9  and  C_10
REMARK    5  A    between atoms: C_18  and  O_19
REMARK                            x       y       z     vdW  Elec       q    Type
REMARK                         _______ _______ _______ _____ _____    ______ ____
ROOT
ATOM      1  C   UNL     1       1.764   0.007  -0.256  0.00  0.00    +0.000 C 
ATOM      2  C   UNL     1       2.345  -0.240  -1.538  0.00  0.00    +0.000 C 
ATOM      3  C   UNL     1       3.477  -0.291  -0.501  0.00  0.00    +0.000 C 
ATOM      4  C   UNL     1       2.599  -0.425   1.402  0.00  0.00    +0.000 C 
ATOM      5  C   UNL     1       2.662  -1.437   0.502  0.00  0.00    +0.000 C 
ATOM      6  C   UNL     1       2.146  -2.765   0.248  0.00  0.00    +0.000 C 
ATOM      7  C   UNL     1       4.381  -1.215   1.225  0.00  0.00    +0.000 C 
ATOM      8  C   UNL     1       4.588   0.463   1.773  0.00  0.00    +0.000 C 
ATOM      9  C   UNL     1       3.920   1.701   0.880  0.00  0.00    +0.000 C 
ATOM     10  C   UNL     1       4.201   3.058   1.426  0.00  0.00    +0.000 A 
ATOM     11  C   UNL     1       5.356   3.246   2.191  0.00  0.00    +0.000 A 
ATOM     12  C   UNL     1       5.640   4.491   2.697  0.00  0.00    +0.000 A 
ATOM     13  C   UNL     1       4.798   5.545   2.375  0.00  0.00    +0.000 A 
ATOM     14  C   UNL     1       3.703   5.387   1.538  0.00  0.00    +0.000 A 
ATOM     15  C   UNL     1       3.398   4.141   1.027  0.00  0.00    +0.000 A 
ATOM     16  C   UNL     1       2.190   4.025   0.125  0.00  0.00    +0.000 C 
ATOM     17  C   UNL     1       2.102   2.704  -0.587  0.00  0.00    +0.000 C 
ATOM     18  C   UNL     1       2.346   1.597   0.405  0.00  0.00    +0.000 C 
ENDROOT
BRANCH   2  19
ATOM     19  O   UNL     1       2.070   0.669  -2.541  0.00  0.00    +0.000 OA
ATOM     20  H   UNL     1       2.612   1.457  -2.458  0.00  0.00    +0.000 HD
ENDBRANCH   2  19
BRANCH   3  21
ATOM     21  O   UNL     1       4.761   0.272  -0.975  0.00  0.00    +0.000 OA
ATOM     22  H   UNL     1       5.488   0.293  -0.316  0.00  0.00    +0.000 HD
ENDBRANCH   3  21
BRANCH   4  23
ATOM     23  O   UNL     1       2.546  -1.301   2.614  0.00  0.00    +0.000 OA
ATOM     24  H   UNL     1       2.920  -2.202   2.582  0.00  0.00    +0.000 HD
ENDBRANCH   4  23
BRANCH  13  25
ATOM     25  O   UNL     1       5.013   6.791   2.873  0.00  0.00    +0.000 OA
ATOM     26  H   UNL     1       5.798   6.747   3.439  0.00  0.00    +0.000 HD
ENDBRANCH  13  25
TORSDOF 4
