REMARK  Name = Estramustine phosphate
REMARK  11 active torsions:
REMARK  status: ('A' for Active; 'I' for Inactive)
REMARK    1  A    between atoms: C_5  and  O_6
REMARK    2  A    between atoms: O_6  and  P_7
REMARK    3  A    between atoms: P_7  and  O_8
REMARK    4  A    between atoms: P_7  and  O_9
REMARK    5  A    between atoms: C_11  and  C_12
REMARK    6  A    between atoms: C_24  and  O_25
REMARK    7  A    between atoms: O_25  and  C_26
REMARK    8  A    between atoms: N_28  and  C_29
REMARK    9  A    between atoms: N_28  and  C_32
REMARK   10  A    between atoms: C_29  and  C_30
REMARK   11  A    between atoms: C_32  and  C_33
REMARK                            x       y       z     vdW  Elec       q    Type
REMARK                         _______ _______ _______ _____ _____    ______ ____
ROOT
ATOM      1  C   UNL     1       1.978  -0.011  -0.081  0.00  0.00    +0.000 C 
ATOM      2  C   UNL     1       2.442   1.397   0.284  0.00  0.00    +0.000 C 
ATOM      3  C   UNL     1       2.564   1.371   1.817  0.00  0.00    +0.000 C 
ATOM      4  C   UNL     1       2.308  -0.086   2.231  0.00  0.00    +0.000 C 
ATOM      5  C   UNL     1       2.651  -0.901   0.976  0.00  0.00    +0.000 C 
ATOM      6  C   UNL     1       4.192  -1.026   0.838  0.00  0.00    +0.000 C 
ATOM      7  C   UNL     1       2.022  -2.299   0.897  0.00  0.00    +0.000 C 
ATOM      8  C   UNL     1       2.192  -2.903  -0.485  0.00  0.00    +0.000 C 
ATOM      9  C   UNL     1       1.674  -1.971  -1.594  0.00  0.00    +0.000 C 
ATOM     10  C   UNL     1       1.875  -2.523  -2.986  0.00  0.00    +0.000 A 
ATOM     11  C   UNL     1       1.998  -1.675  -4.109  0.00  0.00    +0.000 A 
ATOM     12  C   UNL     1       2.081  -0.171  -3.940  0.00  0.00    +0.000 C 
ATOM     13  C   UNL     1       1.587   0.311  -2.573  0.00  0.00    +0.000 C 
ATOM     14  C   UNL     1       2.243  -0.535  -1.484  0.00  0.00    +0.000 C 
ATOM     15  C   UNL     1       2.074  -2.250  -5.394  0.00  0.00    +0.000 A 
ATOM     16  C   UNL     1       1.991  -3.644  -5.538  0.00  0.00    +0.000 A 
ATOM     17  C   UNL     1       1.898  -4.455  -4.426  0.00  0.00    +0.000 A 
ATOM     18  C   UNL     1       1.831  -3.904  -3.169  0.00  0.00    +0.000 A 
ENDROOT
BRANCH   4  19
ATOM     19  O   UNL     1       3.108  -0.460   3.339  0.00  0.00    +0.000 OA
BRANCH  19  20
ATOM     20  P   UNL     1       2.771  -2.098   3.780  0.00  0.00    +0.000 P 
ATOM     21  O   UNL     1       2.468  -3.565   4.174  0.00  0.00    +0.000 OA
BRANCH  20  22
ATOM     22  O   UNL     1       4.267  -2.046   4.441  0.00  0.00    +0.000 OA
ATOM     23  H   UNL     1       4.851  -1.442   3.957  0.00  0.00    +0.000 HD
ENDBRANCH  20  22
BRANCH  20  24
ATOM     24  O   UNL     1       1.997  -1.432   5.060  0.00  0.00    +0.000 OA
ATOM     25  H   UNL     1       1.739  -0.510   4.910  0.00  0.00    +0.000 HD
ENDBRANCH  20  24
ENDBRANCH  19  20
ENDBRANCH   4  19
BRANCH  16  26
ATOM     26  O   UNL     1       1.976  -4.211  -6.836  0.00  0.00    +0.000 OA
BRANCH  26  27
ATOM     27  C   UNL     1       1.816  -5.573  -7.147  0.00  0.00    +0.000 C 
ATOM     28  O   UNL     1       1.701  -6.472  -6.314  0.00  0.00    +0.000 OA
ATOM     29  N   UNL     1       1.795  -5.873  -8.508  0.00  0.00    +0.000 N 
BRANCH  29  30
ATOM     30  C   UNL     1       1.889  -4.906  -9.616  0.00  0.00    +0.000 C 
BRANCH  30  31
ATOM     31  C   UNL     1       2.015  -3.434  -9.255  0.00  0.00    +0.000 C 
ATOM     32 CL   UNL     1       2.116  -2.399 -10.688  0.00  0.00    +0.000 Cl
ENDBRANCH  30  31
ENDBRANCH  29  30
BRANCH  29  33
ATOM     33  C   UNL     1       1.664  -7.311  -8.816  0.00  0.00    +0.000 C 
BRANCH  33  34
ATOM     34  C   UNL     1       1.645  -7.678 -10.294  0.00  0.00    +0.000 C 
ATOM     35 CL   UNL     1       1.490  -9.429 -10.536  0.00  0.00    +0.000 Cl
ENDBRANCH  33  34
ENDBRANCH  29  33
ENDBRANCH  26  27
ENDBRANCH  16  26
TORSDOF 10
