REMARK  Name = Estradiol acetate
REMARK  5 active torsions:
REMARK  status: ('A' for Active; 'I' for Inactive)
REMARK    1  A    between atoms: C_5  and  O_6
REMARK    2  A    between atoms: C_7  and  C_8
REMARK    3  A    between atoms: C_16  and  O_17
REMARK    4  A    between atoms: O_17  and  C_18
REMARK    5  A    between atoms: C_18  and  C_19
REMARK                            x       y       z     vdW  Elec       q    Type
REMARK                         _______ _______ _______ _____ _____    ______ ____
ROOT
ATOM      1  C   UNL     1       2.113  -0.092   0.028  0.00  0.00    +0.000 C 
ATOM      2  C   UNL     1       2.570  -1.446  -0.490  0.00  0.00    +0.000 C 
ATOM      3  C   UNL     1       2.696  -1.232  -2.014  0.00  0.00    +0.000 C 
ATOM      4  C   UNL     1       2.424   0.263  -2.263  0.00  0.00    +0.000 C 
ATOM      5  C   UNL     1       2.799   0.914  -0.926  0.00  0.00    +0.000 C 
ATOM      6  C   UNL     1       4.335   1.008  -0.746  0.00  0.00    +0.000 C 
ATOM      7  C   UNL     1       2.193   2.300  -0.730  0.00  0.00    +0.000 C 
ATOM      8  C   UNL     1       2.276   2.710   0.733  0.00  0.00    +0.000 C 
ATOM      9  C   UNL     1       1.676   1.636   1.689  0.00  0.00    +0.000 C 
ATOM     10  C   UNL     1       1.727   2.023   3.135  0.00  0.00    +0.000 A 
ATOM     11  C   UNL     1       1.595   3.359   3.400  0.00  0.00    +0.000 A 
ATOM     12  C   UNL     1       1.608   3.809   4.679  0.00  0.00    +0.000 A 
ATOM     13  C   UNL     1       1.714   2.974   5.761  0.00  0.00    +0.000 A 
ATOM     14  C   UNL     1       1.817   1.598   5.540  0.00  0.00    +0.000 A 
ATOM     15  C   UNL     1       1.816   1.115   4.209  0.00  0.00    +0.000 A 
ATOM     16  C   UNL     1       1.970  -0.359   3.931  0.00  0.00    +0.000 C 
ATOM     17  C   UNL     1       1.673  -0.736   2.471  0.00  0.00    +0.000 C 
ATOM     18  C   UNL     1       2.323   0.256   1.495  0.00  0.00    +0.000 C 
ENDROOT
BRANCH   4  19
ATOM     19  O   UNL     1       3.114   0.785  -3.379  0.00  0.00    +0.000 OA
ATOM     20  H   UNL     1       4.067   0.650  -3.255  0.00  0.00    +0.000 HD
ENDBRANCH   4  19
BRANCH  13  21
ATOM     21  O   UNL     1       1.715   3.488   7.085  0.00  0.00    +0.000 OA
BRANCH  21  22
ATOM     22  C   UNL     1       1.633   4.762   7.677  0.00  0.00    +0.000 C 
ATOM     23  C   UNL     1       1.512   6.009   6.838  0.00  0.00    +0.000 C 
ATOM     24  O   UNL     1       1.660   4.873   8.893  0.00  0.00    +0.000 OA
ENDBRANCH  21  22
ENDBRANCH  13  21
TORSDOF 3
