REMARK  Name = Estradiol dienanthate
REMARK  17 active torsions:
REMARK  status: ('A' for Active; 'I' for Inactive)
REMARK    1  A    between atoms: C_1  and  C_2
REMARK    2  A    between atoms: C_2  and  C_3
REMARK    3  A    between atoms: C_3  and  C_4
REMARK    4  A    between atoms: C_4  and  C_5
REMARK    5  A    between atoms: C_5  and  C_6
REMARK    6  A    between atoms: C_6  and  C_7
REMARK    7  A    between atoms: C_7  and  O_9
REMARK    8  A    between atoms: O_9  and  C_10
REMARK    9  A    between atoms: C_19  and  O_20
REMARK   10  A    between atoms: O_20  and  C_21
REMARK   11  A    between atoms: C_21  and  C_23
REMARK   12  A    between atoms: C_23  and  C_24
REMARK   13  A    between atoms: C_24  and  C_25
REMARK   14  A    between atoms: C_25  and  C_26
REMARK   15  A    between atoms: C_26  and  C_27
REMARK   16  A    between atoms: C_27  and  C_28
REMARK   17  A    between atoms: C_35  and  C_36
REMARK                            x       y       z     vdW  Elec       q    Type
REMARK                         _______ _______ _______ _____ _____    ______ ____
ROOT
ATOM      1  C   UNL     1       8.815   4.314   4.049  0.00  0.00    +0.000 C 
ATOM      2  C   UNL     1      10.363   4.480   4.055  0.00  0.00    +0.000 C 
ATOM      3  C   UNL     1      10.650   5.985   4.281  0.00  0.00    +0.000 C 
ATOM      4  C   UNL     1       9.277   6.590   4.550  0.00  0.00    +0.000 C 
ATOM      5  C   UNL     1       9.063   8.083   4.300  0.00  0.00    +0.000 C 
ATOM      6  C   UNL     1       9.956   8.985   5.153  0.00  0.00    +0.000 C 
ATOM      7  C   UNL     1       9.805  10.437   4.680  0.00  0.00    +0.000 C 
ATOM      8  C   UNL     1       8.365  10.875   4.521  0.00  0.00    +0.000 A 
ATOM      9  C   UNL     1       8.049  12.251   4.428  0.00  0.00    +0.000 A 
ATOM     10  C   UNL     1       6.717  12.658   4.287  0.00  0.00    +0.000 A 
ATOM     11  C   UNL     1       5.729  11.688   4.175  0.00  0.00    +0.000 A 
ATOM     12  C   UNL     1       6.025  10.347   4.257  0.00  0.00    +0.000 A 
ATOM     13  C   UNL     1       7.334   9.917   4.434  0.00  0.00    +0.000 A 
ATOM     14  C   UNL     1       7.595   8.442   4.635  0.00  0.00    +0.000 C 
ATOM     15  C   UNL     1       6.587   7.547   3.901  0.00  0.00    +0.000 C 
ATOM     16  C   UNL     1       6.897   6.074   4.058  0.00  0.00    +0.000 C 
ATOM     17  C   UNL     1       8.338   5.736   3.673  0.00  0.00    +0.000 C 
ATOM     18  C   UNL     1       8.518   5.946   2.147  0.00  0.00    +0.000 C 
ENDROOT
BRANCH   1  19
ATOM     19  O   UNL     1       8.371   3.315   3.105  0.00  0.00    +0.000 OA
BRANCH  19  20
ATOM     20  C   UNL     1       7.038   3.023   3.165  0.00  0.00    +0.000 C 
ATOM     21  O   UNL     1       6.273   3.431   4.037  0.00  0.00    +0.000 OA
BRANCH  20  22
ATOM     22  C   UNL     1       6.580   2.110   2.058  0.00  0.00    +0.000 C 
BRANCH  22  23
ATOM     23  C   UNL     1       5.044   2.108   2.009  0.00  0.00    +0.000 C 
BRANCH  23  24
ATOM     24  C   UNL     1       4.504   1.075   1.033  0.00  0.00    +0.000 C 
BRANCH  24  25
ATOM     25  C   UNL     1       2.977   1.076   1.037  0.00  0.00    +0.000 C 
BRANCH  25  27
ATOM     26  C   UNL     1       0.922   0.027   0.061  0.00  0.00    +0.000 C 
ATOM     27  C   UNL     1       2.440   0.032   0.065  0.00  0.00    +0.000 C 
ENDBRANCH  25  27
ENDBRANCH  24  25
ENDBRANCH  23  24
ENDBRANCH  22  23
ENDBRANCH  20  22
ENDBRANCH  19  20
ENDBRANCH   1  19
BRANCH  10  28
ATOM     28  O   UNL     1       6.423  14.048   4.290  0.00  0.00    +0.000 OA
BRANCH  28  29
ATOM     29  C   UNL     1       5.094  14.480   4.243  0.00  0.00    +0.000 C 
ATOM     30  O   UNL     1       4.093  13.774   4.170  0.00  0.00    +0.000 OA
BRANCH  29  31
ATOM     31  C   UNL     1       4.958  15.973   4.292  0.00  0.00    +0.000 C 
BRANCH  31  32
ATOM     32  C   UNL     1       3.453  16.266   4.179  0.00  0.00    +0.000 C 
BRANCH  32  33
ATOM     33  C   UNL     1       3.139  17.743   4.210  0.00  0.00    +0.000 C 
BRANCH  33  34
ATOM     34  C   UNL     1       1.633  17.960   4.092  0.00  0.00    +0.000 C 
BRANCH  34  35
ATOM     35  C   UNL     1       1.317  19.448   4.123  0.00  0.00    +0.000 C 
ATOM     36  C   UNL     1      -0.176  19.684   4.006  0.00  0.00    +0.000 C 
ENDBRANCH  34  35
ENDBRANCH  33  34
ENDBRANCH  32  33
ENDBRANCH  31  32
ENDBRANCH  29  31
ENDBRANCH  28  29
ENDBRANCH  10  28
TORSDOF 14
