REMARK  Name = Estradiol valerate
REMARK  8 active torsions:
REMARK  status: ('A' for Active; 'I' for Inactive)
REMARK    1  A    between atoms: C_5  and  O_6
REMARK    2  A    between atoms: O_6  and  C_7
REMARK    3  A    between atoms: C_7  and  C_9
REMARK    4  A    between atoms: C_9  and  C_10
REMARK    5  A    between atoms: C_10  and  C_11
REMARK    6  A    between atoms: C_11  and  C_12
REMARK    7  A    between atoms: C_13  and  C_14
REMARK    8  A    between atoms: C_26  and  O_27
REMARK                            x       y       z     vdW  Elec       q    Type
REMARK                         _______ _______ _______ _____ _____    ______ ____
ROOT
ATOM      1  C   UNL     1       2.036   0.087   0.003  0.00  0.00    +0.000 C 
ATOM      2  C   UNL     1       2.513  -1.298  -0.414  0.00  0.00    +0.000 C 
ATOM      3  C   UNL     1       2.601  -1.205  -1.957  0.00  0.00    +0.000 C 
ATOM      4  C   UNL     1       2.439   0.294  -2.338  0.00  0.00    +0.000 C 
ATOM      5  C   UNL     1       2.740   1.020  -1.005  0.00  0.00    +0.000 C 
ATOM      6  C   UNL     1       4.273   1.125  -0.814  0.00  0.00    +0.000 C 
ATOM      7  C   UNL     1       2.106   2.408  -0.866  0.00  0.00    +0.000 C 
ATOM      8  C   UNL     1       2.179   2.948   0.554  0.00  0.00    +0.000 C 
ATOM      9  C   UNL     1       1.583   1.980   1.587  0.00  0.00    +0.000 C 
ATOM     10  C   UNL     1       1.660   2.507   3.010  0.00  0.00    +0.000 A 
ATOM     11  C   UNL     1       1.778   1.614   4.091  0.00  0.00    +0.000 A 
ATOM     12  C   UNL     1       1.921   0.125   3.889  0.00  0.00    +0.000 C 
ATOM     13  C   UNL     1       1.589  -0.361   2.478  0.00  0.00    +0.000 C 
ATOM     14  C   UNL     1       2.228   0.566   1.448  0.00  0.00    +0.000 C 
ATOM     15  C   UNL     1       1.838   2.117   5.402  0.00  0.00    +0.000 A 
ATOM     16  C   UNL     1       1.768   3.486   5.633  0.00  0.00    +0.000 A 
ATOM     17  C   UNL     1       1.623   4.373   4.581  0.00  0.00    +0.000 A 
ATOM     18  C   UNL     1       1.551   3.884   3.279  0.00  0.00    +0.000 A 
ENDROOT
BRANCH  16  19
ATOM     19  O   UNL     1       1.839   4.001   6.892  0.00  0.00    +0.000 OA
ATOM     20  H   UNL     1       1.939   3.265   7.517  0.00  0.00    +0.000 HD
ENDBRANCH  16  19
BRANCH   4  21
ATOM     21  O   UNL     1       3.338   0.664  -3.410  0.00  0.00    +0.000 OA
BRANCH  21  22
ATOM     22  C   UNL     1       3.153   1.914  -3.927  0.00  0.00    +0.000 C 
ATOM     23  O   UNL     1       2.234   2.668  -3.617  0.00  0.00    +0.000 OA
BRANCH  22  24
ATOM     24  C   UNL     1       4.193   2.284  -4.956  0.00  0.00    +0.000 C 
BRANCH  24  25
ATOM     25  C   UNL     1       4.040   3.769  -5.318  0.00  0.00    +0.000 C 
BRANCH  25  26
ATOM     26  C   UNL     1       4.975   4.200  -6.441  0.00  0.00    +0.000 C 
ATOM     27  C   UNL     1       4.768   5.669  -6.779  0.00  0.00    +0.000 C 
ENDBRANCH  25  26
ENDBRANCH  24  25
ENDBRANCH  22  24
ENDBRANCH  21  22
ENDBRANCH   4  21
TORSDOF 6
