REMARK  Name = Estradiol cypionate
REMARK  7 active torsions:
REMARK  status: ('A' for Active; 'I' for Inactive)
REMARK    1  A    between atoms: C_2  and  O_24
REMARK    2  A    between atoms: C_13  and  O_14
REMARK    3  A    between atoms: C_22  and  C_23
REMARK    4  A    between atoms: O_24  and  C_25
REMARK    5  A    between atoms: C_25  and  C_27
REMARK    6  A    between atoms: C_27  and  C_28
REMARK    7  A    between atoms: C_28  and  C_29
REMARK                            x       y       z     vdW  Elec       q    Type
REMARK                         _______ _______ _______ _____ _____    ______ ____
ROOT
ATOM      1  C   UNL     1       1.988   0.063  -0.051  0.00  0.00    +0.000 C 
ATOM      2  C   UNL     1       2.530   1.370   0.563  0.00  0.00    +0.000 C 
ATOM      3  C   UNL     1       3.730   0.969   1.444  0.00  0.00    +0.000 C 
ATOM      4  C   UNL     1       3.970  -0.495   1.089  0.00  0.00    +0.000 C 
ATOM      5  C   UNL     1       4.782  -1.387   2.027  0.00  0.00    +0.000 C 
ATOM      6  C   UNL     1       6.186  -0.841   2.283  0.00  0.00    +0.000 C 
ATOM      7  C   UNL     1       6.908  -1.709   3.310  0.00  0.00    +0.000 C 
ATOM      8  C   UNL     1       6.742  -3.194   3.096  0.00  0.00    +0.000 A 
ATOM      9  C   UNL     1       7.548  -4.061   3.855  0.00  0.00    +0.000 A 
ATOM     10  C   UNL     1       7.409  -5.438   3.728  0.00  0.00    +0.000 A 
ATOM     11  C   UNL     1       6.489  -5.973   2.843  0.00  0.00    +0.000 A 
ATOM     12  C   UNL     1       5.690  -5.122   2.081  0.00  0.00    +0.000 A 
ATOM     13  C   UNL     1       5.775  -3.725   2.216  0.00  0.00    +0.000 A 
ATOM     14  C   UNL     1       4.901  -2.801   1.379  0.00  0.00    +0.000 C 
ATOM     15  C   UNL     1       3.502  -3.375   1.041  0.00  0.00    +0.000 C 
ATOM     16  C   UNL     1       2.645  -2.414   0.206  0.00  0.00    +0.000 C 
ATOM     17  C   UNL     1       2.544  -1.037   0.870  0.00  0.00    +0.000 C 
ATOM     18  C   UNL     1       1.690  -1.143   2.157  0.00  0.00    +0.000 C 
ENDROOT
BRANCH  10  19
ATOM     19  O   UNL     1       8.167  -6.302   4.460  0.00  0.00    +0.000 OA
ATOM     20  H   UNL     1       8.756  -5.786   5.032  0.00  0.00    +0.000 HD
ENDBRANCH  10  19
BRANCH   1  21
ATOM     21  O   UNL     1       0.549   0.054  -0.069  0.00  0.00    +0.000 OA
BRANCH  21  22
ATOM     22  C   UNL     1      -0.203   0.285  -1.173  0.00  0.00    +0.000 C 
ATOM     23  O   UNL     1      -1.430   0.274  -1.121  0.00  0.00    +0.000 OA
BRANCH  22  24
ATOM     24  C   UNL     1       0.557   0.531  -2.441  0.00  0.00    +0.000 C 
BRANCH  24  25
ATOM     25  C   UNL     1      -0.339   0.771  -3.656  0.00  0.00    +0.000 C 
BRANCH  25  26
ATOM     26  C   UNL     1       0.456   1.026  -4.941  0.00  0.00    +0.000 C 
ATOM     27  C   UNL     1       1.342   2.269  -4.873  0.00  0.00    +0.000 C 
ATOM     28  C   UNL     1       2.353   2.073  -5.990  0.00  0.00    +0.000 C 
ATOM     29  C   UNL     1       2.504   0.564  -6.167  0.00  0.00    +0.000 C 
ATOM     30  C   UNL     1       1.445  -0.087  -5.290  0.00  0.00    +0.000 C 
ENDBRANCH  25  26
ENDBRANCH  24  25
ENDBRANCH  22  24
ENDBRANCH  21  22
ENDBRANCH   1  21
TORSDOF 6
