REMARK  Name = Estradiol benzoate
REMARK  5 active torsions:
REMARK  status: ('A' for Active; 'I' for Inactive)
REMARK    1  A    between atoms: C_2  and  O_3
REMARK    2  A    between atoms: C_14  and  O_15
REMARK    3  A    between atoms: O_15  and  C_16
REMARK    4  A    between atoms: C_16  and  C_18
REMARK    5  A    between atoms: C_31  and  C_32
REMARK                            x       y       z     vdW  Elec       q    Type
REMARK                         _______ _______ _______ _____ _____    ______ ____
ROOT
ATOM      1  C   UNL     1       1.974   0.048  -0.077  0.00  0.00    +0.000 C 
ATOM      2  C   UNL     1       2.565   0.505  -1.423  0.00  0.00    +0.000 C 
ATOM      3  C   UNL     1       2.873  -0.785  -2.216  0.00  0.00    +0.000 C 
ATOM      4  C   UNL     1       2.317  -1.900  -1.335  0.00  0.00    +0.000 C 
ATOM      5  C   UNL     1       2.815  -3.337  -1.510  0.00  0.00    +0.000 C 
ATOM      6  C   UNL     1       2.604  -3.875  -2.927  0.00  0.00    +0.000 C 
ATOM      7  C   UNL     1       3.171  -5.294  -3.067  0.00  0.00    +0.000 C 
ATOM      8  C   UNL     1       2.863  -6.211  -1.904  0.00  0.00    +0.000 A 
ATOM      9  C   UNL     1       3.126  -7.601  -2.017  0.00  0.00    +0.000 A 
ATOM     10  C   UNL     1       2.869  -8.461  -0.941  0.00  0.00    +0.000 A 
ATOM     11  C   UNL     1       2.352  -7.925   0.230  0.00  0.00    +0.000 A 
ATOM     12  C   UNL     1       2.090  -6.574   0.348  0.00  0.00    +0.000 A 
ATOM     13  C   UNL     1       2.361  -5.692  -0.693  0.00  0.00    +0.000 A 
ATOM     14  C   UNL     1       2.018  -4.226  -0.521  0.00  0.00    +0.000 C 
ATOM     15  C   UNL     1       2.152  -3.712   0.937  0.00  0.00    +0.000 C 
ATOM     16  C   UNL     1       1.776  -2.237   1.086  0.00  0.00    +0.000 C 
ATOM     17  C   UNL     1       2.547  -1.367   0.095  0.00  0.00    +0.000 C 
ATOM     18  C   UNL     1       4.038  -1.312   0.516  0.00  0.00    +0.000 C 
ENDROOT
BRANCH   1  19
ATOM     19  O   UNL     1       2.315   0.916   0.984  0.00  0.00    +0.000 OA
ATOM     20  H   UNL     1       1.877   1.768   0.813  0.00  0.00    +0.000 HD
ENDBRANCH   1  19
BRANCH  10  21
ATOM     21  O   UNL     1       3.142  -9.851  -1.085  0.00  0.00    +0.000 OA
BRANCH  21  22
ATOM     22  C   UNL     1       2.855 -10.742  -0.054  0.00  0.00    +0.000 C 
ATOM     23  O   UNL     1       2.372 -10.510   1.052  0.00  0.00    +0.000 OA
BRANCH  22  24
ATOM     24  C   UNL     1       3.174 -12.141  -0.351  0.00  0.00    +0.000 A 
ATOM     25  C   UNL     1       2.305 -13.111   0.178  0.00  0.00    +0.000 A 
ATOM     26  C   UNL     1       2.681 -14.449   0.199  0.00  0.00    +0.000 A 
ATOM     27  C   UNL     1       3.893 -14.828  -0.372  0.00  0.00    +0.000 A 
ATOM     28  C   UNL     1       4.750 -13.864  -0.916  0.00  0.00    +0.000 A 
ATOM     29  C   UNL     1       4.400 -12.512  -0.897  0.00  0.00    +0.000 A 
ENDBRANCH  22  24
ENDBRANCH  21  22
ENDBRANCH  10  21
TORSDOF 4
