REMARK  Name = Estriol
REMARK  4 active torsions:
REMARK  status: ('A' for Active; 'I' for Inactive)
REMARK    1  A    between atoms: C_4  and  O_5
REMARK    2  A    between atoms: C_6  and  O_7
REMARK    3  A    between atoms: C_8  and  C_9
REMARK    4  A    between atoms: C_21  and  O_22
REMARK                            x       y       z     vdW  Elec       q    Type
REMARK                         _______ _______ _______ _____ _____    ______ ____
ROOT
ATOM      1  C   UNL     1       1.771  -0.018  -0.270  0.00  0.00    +0.000 C 
ATOM      2  C   UNL     1       2.386  -0.177  -1.542  0.00  0.00    +0.000 C 
ATOM      3  C   UNL     1       3.482  -0.349  -0.509  0.00  0.00    +0.000 C 
ATOM      4  C   UNL     1       2.596  -0.460   1.390  0.00  0.00    +0.000 C 
ATOM      5  C   UNL     1       2.656  -1.465   0.481  0.00  0.00    +0.000 C 
ATOM      6  C   UNL     1       2.138  -2.790   0.218  0.00  0.00    +0.000 C 
ATOM      7  C   UNL     1       4.379  -1.248   1.212  0.00  0.00    +0.000 C 
ATOM      8  C   UNL     1       4.583   0.436   1.748  0.00  0.00    +0.000 C 
ATOM      9  C   UNL     1       3.913   1.669   0.844  0.00  0.00    +0.000 C 
ATOM     10  C   UNL     1       4.194   3.026   1.383  0.00  0.00    +0.000 A 
ATOM     11  C   UNL     1       3.398   4.107   0.968  0.00  0.00    +0.000 A 
ATOM     12  C   UNL     1       2.208   3.963   0.036  0.00  0.00    +0.000 C 
ATOM     13  C   UNL     1       2.094   2.625  -0.667  0.00  0.00    +0.000 C 
ATOM     14  C   UNL     1       2.339   1.556   0.371  0.00  0.00    +0.000 C 
ATOM     15  C   UNL     1       3.693   5.355   1.496  0.00  0.00    +0.000 A 
ATOM     16  C   UNL     1       4.790   5.508   2.345  0.00  0.00    +0.000 A 
ATOM     17  C   UNL     1       5.626   4.454   2.664  0.00  0.00    +0.000 A 
ATOM     18  C   UNL     1       5.343   3.212   2.158  0.00  0.00    +0.000 A 
ENDROOT
BRANCH   3  19
ATOM     19  O   UNL     1       4.759   0.221  -0.986  0.00  0.00    +0.000 OA
ATOM     20  H   UNL     1       5.486   0.261  -0.330  0.00  0.00    +0.000 HD
ENDBRANCH   3  19
BRANCH   4  21
ATOM     21  O   UNL     1       2.531  -1.341   2.594  0.00  0.00    +0.000 OA
ATOM     22  H   UNL     1       2.918  -2.235   2.561  0.00  0.00    +0.000 HD
ENDBRANCH   4  21
BRANCH  16  23
ATOM     23  O   UNL     1       5.091   6.713   2.899  0.00  0.00    +0.000 OA
ATOM     24  H   UNL     1       4.429   7.350   2.591  0.00  0.00    +0.000 HD
ENDBRANCH  16  23
TORSDOF 3
