REMARK  Name = Estramustine
REMARK  8 active torsions:
REMARK  status: ('A' for Active; 'I' for Inactive)
REMARK    1  A    between atoms: C_5  and  O_6
REMARK    2  A    between atoms: C_7  and  C_8
REMARK    3  A    between atoms: C_16  and  O_17
REMARK    4  A    between atoms: O_17  and  C_18
REMARK    5  A    between atoms: N_20  and  C_21
REMARK    6  A    between atoms: N_20  and  C_24
REMARK    7  A    between atoms: C_21  and  C_22
REMARK    8  A    between atoms: C_24  and  C_25
REMARK                            x       y       z     vdW  Elec       q    Type
REMARK                         _______ _______ _______ _____ _____    ______ ____
ROOT
ATOM      1  C   UNL     1       1.975  -0.087  -0.004  0.00  0.00    +0.000 C 
ATOM      2  C   UNL     1       2.431  -1.446  -0.525  0.00  0.00    +0.000 C 
ATOM      3  C   UNL     1       2.558  -1.238  -2.052  0.00  0.00    +0.000 C 
ATOM      4  C   UNL     1       2.286   0.256  -2.303  0.00  0.00    +0.000 C 
ATOM      5  C   UNL     1       2.659   0.912  -0.965  0.00  0.00    +0.000 C 
ATOM      6  C   UNL     1       4.196   0.998  -0.791  0.00  0.00    +0.000 C 
ATOM      7  C   UNL     1       2.054   2.300  -0.764  0.00  0.00    +0.000 C 
ATOM      8  C   UNL     1       2.141   2.728   0.700  0.00  0.00    +0.000 C 
ATOM      9  C   UNL     1       1.541   1.680   1.673  0.00  0.00    +0.000 C 
ATOM     10  C   UNL     1       1.592   2.104   3.123  0.00  0.00    +0.000 A 
ATOM     11  C   UNL     1       1.466   3.460   3.421  0.00  0.00    +0.000 A 
ATOM     12  C   UNL     1       1.472   3.912   4.718  0.00  0.00    +0.000 A 
ATOM     13  C   UNL     1       1.576   3.023   5.766  0.00  0.00    +0.000 A 
ATOM     14  C   UNL     1       1.677   1.644   5.512  0.00  0.00    +0.000 A 
ATOM     15  C   UNL     1       1.676   1.173   4.178  0.00  0.00    +0.000 A 
ATOM     16  C   UNL     1       1.826  -0.307   3.892  0.00  0.00    +0.000 C 
ATOM     17  C   UNL     1       1.532  -0.704   2.437  0.00  0.00    +0.000 C 
ATOM     18  C   UNL     1       2.182   0.284   1.465  0.00  0.00    +0.000 C 
ENDROOT
BRANCH   4  19
ATOM     19  O   UNL     1       2.975   0.774  -3.423  0.00  0.00    +0.000 OA
ATOM     20  H   UNL     1       3.928   0.642  -3.302  0.00  0.00    +0.000 HD
ENDBRANCH   4  19
BRANCH  13  21
ATOM     21  O   UNL     1       1.579   3.499   7.101  0.00  0.00    +0.000 OA
BRANCH  21  22
ATOM     22  C   UNL     1       1.486   4.844   7.506  0.00  0.00    +0.000 C 
ATOM     23  O   UNL     1       1.390   5.801   6.737  0.00  0.00    +0.000 OA
ATOM     24  N   UNL     1       1.510   5.057   8.883  0.00  0.00    +0.000 N 
BRANCH  24  25
ATOM     25  C   UNL     1       1.621   4.020   9.923  0.00  0.00    +0.000 C 
BRANCH  25  26
ATOM     26  C   UNL     1       1.720   2.574   9.465  0.00  0.00    +0.000 C 
ATOM     27 CL   UNL     1       1.848   1.449  10.827  0.00  0.00    +0.000 Cl
ENDBRANCH  25  26
ENDBRANCH  24  25
BRANCH  24  28
ATOM     28  C   UNL     1       1.412   6.475   9.286  0.00  0.00    +0.000 C 
BRANCH  28  29
ATOM     29  C   UNL     1       1.435   6.746  10.784  0.00  0.00    +0.000 C 
ATOM     30 CL   UNL     1       1.311   8.480  11.141  0.00  0.00    +0.000 Cl
ENDBRANCH  28  29
ENDBRANCH  24  28
ENDBRANCH  21  22
ENDBRANCH  13  21
TORSDOF 7
