REMARK  Name = Estradiol
REMARK  3 active torsions:
REMARK  status: ('A' for Active; 'I' for Inactive)
REMARK    1  A    between atoms: C_5  and  O_6
REMARK    2  A    between atoms: C_7  and  C_8
REMARK    3  A    between atoms: C_20  and  O_21
REMARK                            x       y       z     vdW  Elec       q    Type
REMARK                         _______ _______ _______ _____ _____    ______ ____
ROOT
ATOM      1  C   UNL     1       1.972  -0.049  -0.038  0.00  0.00    +0.000 C 
ATOM      2  C   UNL     1       2.440   1.300  -0.581  0.00  0.00    +0.000 C 
ATOM      3  C   UNL     1       2.494   2.205   0.667  0.00  0.00    +0.000 C 
ATOM      4  C   UNL     1       2.309   1.277   1.883  0.00  0.00    +0.000 C 
ATOM      5  C   UNL     1       2.659  -0.123   1.343  0.00  0.00    +0.000 C 
ATOM      6  C   UNL     1       4.195  -0.319   1.281  0.00  0.00    +0.000 C 
ATOM      7  C   UNL     1       2.027  -1.276   2.125  0.00  0.00    +0.000 C 
ATOM      8  C   UNL     1       2.165  -2.602   1.366  0.00  0.00    +0.000 C 
ATOM      9  C   UNL     1       1.628  -2.542  -0.087  0.00  0.00    +0.000 C 
ATOM     10  C   UNL     1       1.834  -3.828  -0.881  0.00  0.00    +0.000 A 
ATOM     11  C   UNL     1       1.898  -3.794  -2.290  0.00  0.00    +0.000 A 
ATOM     12  C   UNL     1       1.815  -2.499  -3.067  0.00  0.00    +0.000 C 
ATOM     13  C   UNL     1       1.496  -1.256  -2.231  0.00  0.00    +0.000 C 
ATOM     14  C   UNL     1       2.194  -1.317  -0.869  0.00  0.00    +0.000 C 
ATOM     15  C   UNL     1       2.097  -4.992  -3.008  0.00  0.00    +0.000 A 
ATOM     16  C   UNL     1       2.205  -6.204  -2.332  0.00  0.00    +0.000 A 
ATOM     17  C   UNL     1       2.106  -6.252  -0.954  0.00  0.00    +0.000 A 
ATOM     18  C   UNL     1       1.911  -5.075  -0.235  0.00  0.00    +0.000 A 
ENDROOT
BRANCH   4  19
ATOM     19  O   UNL     1       3.085   1.679   2.996  0.00  0.00    +0.000 OA
ATOM     20  H   UNL     1       4.014   1.752   2.722  0.00  0.00    +0.000 HD
ENDBRANCH   4  19
BRANCH  16  21
ATOM     21  O   UNL     1       2.410  -7.383  -2.986  0.00  0.00    +0.000 OA
ATOM     22  H   UNL     1       2.467  -7.208  -3.938  0.00  0.00    +0.000 HD
ENDBRANCH  16  21
TORSDOF 2
