REMARK  Name = Estrone
REMARK  2 active torsions:
REMARK  status: ('A' for Active; 'I' for Inactive)
REMARK    1  A    between atoms: C_7  and  C_8
REMARK    2  A    between atoms: C_20  and  O_21
REMARK                            x       y       z     vdW  Elec       q    Type
REMARK                         _______ _______ _______ _____ _____    ______ ____
ROOT
ATOM      1  C   UNL     1       1.804  -0.225  -0.302  0.00  0.00    +0.000 C 
ATOM      2  C   UNL     1       2.335  -0.298  -1.662  0.00  0.00    +0.000 C 
ATOM      3  C   UNL     1       3.532  -0.182  -0.801  0.00  0.00    +0.000 C 
ATOM      4  C   UNL     1       2.709  -0.484   0.923  0.00  0.00    +0.000 C 
ATOM      5  O   UNL     1       2.300  -0.184   2.051  0.00  0.00    +0.000 OA
ATOM      6  C   UNL     1       2.771  -1.686   0.499  0.00  0.00    +0.000 C 
ATOM      7  C   UNL     1       2.134  -2.963   0.210  0.00  0.00    +0.000 C 
ATOM      8  C   UNL     1       4.347  -1.348   1.210  0.00  0.00    +0.000 C 
ATOM      9  C   UNL     1       4.644   0.349   1.719  0.00  0.00    +0.000 C 
ATOM     10  C   UNL     1       4.011   1.621   0.842  0.00  0.00    +0.000 C 
ATOM     11  C   UNL     1       4.244   3.005   1.377  0.00  0.00    +0.000 A 
ATOM     12  C   UNL     1       3.441   4.089   0.958  0.00  0.00    +0.000 A 
ATOM     13  C   UNL     1       2.251   3.957   0.020  0.00  0.00    +0.000 C 
ATOM     14  C   UNL     1       2.126   2.621  -0.709  0.00  0.00    +0.000 C 
ATOM     15  C   UNL     1       2.357   1.517   0.298  0.00  0.00    +0.000 C 
ATOM     16  C   UNL     1       3.728   5.352   1.482  0.00  0.00    +0.000 A 
ATOM     17  C   UNL     1       4.821   5.526   2.333  0.00  0.00    +0.000 A 
ATOM     18  C   UNL     1       5.660   4.478   2.662  0.00  0.00    +0.000 A 
ATOM     19  C   UNL     1       5.381   3.221   2.169  0.00  0.00    +0.000 A 
ENDROOT
BRANCH  17  20
ATOM     20  O   UNL     1       5.111   6.742   2.872  0.00  0.00    +0.000 OA
ATOM     21  H   UNL     1       4.434   7.366   2.569  0.00  0.00    +0.000 HD
ENDBRANCH  17  20
TORSDOF 1
