REMARK  Name = Estrone sulfate
REMARK  4 active torsions:
REMARK  status: ('A' for Active; 'I' for Inactive)
REMARK    1  A    between atoms: C_7  and  C_8
REMARK    2  A    between atoms: C_20  and  O_21
REMARK    3  A    between atoms: O_21  and  S_22
REMARK    4  A    between atoms: S_22  and  O_23
REMARK                            x       y       z     vdW  Elec       q    Type
REMARK                         _______ _______ _______ _____ _____    ______ ____
ROOT
ATOM      1  C   UNL     1       1.994   0.041   0.084  0.00  0.00    +0.000 C 
ATOM      2  C   UNL     1       2.419   1.309   0.819  0.00  0.00    +0.000 C 
ATOM      3  C   UNL     1       2.336   0.904   2.302  0.00  0.00    +0.000 C 
ATOM      4  C   UNL     1       2.413  -0.612   2.256  0.00  0.00    +0.000 C 
ATOM      5  O   UNL     1       2.292  -1.338   3.233  0.00  0.00    +0.000 OA
ATOM      6  C   UNL     1       2.703  -1.095   0.851  0.00  0.00    +0.000 C 
ATOM      7  C   UNL     1       4.234  -1.138   0.707  0.00  0.00    +0.000 C 
ATOM      8  C   UNL     1       2.087  -2.427   0.444  0.00  0.00    +0.000 C 
ATOM      9  C   UNL     1       2.197  -2.627  -1.075  0.00  0.00    +0.000 C 
ATOM     10  C   UNL     1       1.596  -1.443  -1.874  0.00  0.00    +0.000 C 
ATOM     11  C   UNL     1       1.619  -1.610  -3.384  0.00  0.00    +0.000 A 
ATOM     12  C   UNL     1       1.662  -0.500  -4.251  0.00  0.00    +0.000 A 
ATOM     13  C   UNL     1       1.872   0.898  -3.709  0.00  0.00    +0.000 C 
ATOM     14  C   UNL     1       1.543   1.039  -2.219  0.00  0.00    +0.000 C 
ATOM     15  C   UNL     1       2.209  -0.086  -1.426  0.00  0.00    +0.000 C 
ATOM     16  C   UNL     1       1.553  -0.700  -5.649  0.00  0.00    +0.000 A 
ATOM     17  C   UNL     1       1.354  -1.984  -6.181  0.00  0.00    +0.000 A 
ATOM     18  C   UNL     1       1.302  -3.059  -5.306  0.00  0.00    +0.000 A 
ATOM     19  C   UNL     1       1.446  -2.879  -3.939  0.00  0.00    +0.000 A 
ENDROOT
BRANCH  17  20
ATOM     20  O   UNL     1       1.219  -2.105  -7.545  0.00  0.00    +0.000 OA
BRANCH  20  21
ATOM     21  S   UNL     1       0.870  -3.525  -8.291  0.00  0.00    +0.000 S 
ATOM     22  O   UNL     1      -0.222  -4.182  -7.607  0.00  0.00    +0.000 OA
ATOM     23  O   UNL     1       0.804  -3.290  -9.719  0.00  0.00    +0.000 OA
BRANCH  21  24
ATOM     24  O   UNL     1       2.186  -4.436  -8.043  0.00  0.00    +0.000 OA
ATOM     25  H   UNL     1       2.306  -4.637  -7.097  0.00  0.00    +0.000 HD
ENDBRANCH  21  24
ENDBRANCH  20  21
ENDBRANCH  17  20
TORSDOF 3
