REMARK  Name = Eszopiclone
REMARK  3 active torsions:
REMARK  status: ('A' for Active; 'I' for Inactive)
REMARK    1  A    between atoms: C_1  and  N_2
REMARK    2  A    between atoms: C_8  and  O_10
REMARK    3  A    between atoms: O_10  and  C_11
REMARK                            x       y       z     vdW  Elec       q    Type
REMARK                         _______ _______ _______ _____ _____    ______ ____
ROOT
ATOM      1  C   UNL     1      -5.196  -1.320   1.804  0.00  0.00    +0.000 C 
ATOM      2  N   UNL     1      -5.361  -2.498   2.643  0.00  0.00    +0.000 N 
ATOM      3  C   UNL     1      -5.426  -2.086   4.025  0.00  0.00    +0.000 C 
ATOM      4  O   UNL     1      -5.517  -2.765   5.007  0.00  0.00    +0.000 OA
ATOM      5  C   UNL     1      -5.432  -0.578   4.052  0.00  0.00    +0.000 A 
ATOM      6  N   UNL     1      -5.428   0.326   5.087  0.00  0.00    +0.000 NA
ATOM      7  C   UNL     1      -5.589   1.638   4.723  0.00  0.00    +0.000 A 
ATOM      8  C   UNL     1      -5.901   1.979   3.441  0.00  0.00    +0.000 A 
ATOM      9  N   UNL     1      -5.957   1.049   2.459  0.00  0.00    +0.000 NA
ATOM     10  C   UNL     1      -5.570  -0.203   2.764  0.00  0.00    +0.000 A 
ATOM     11  C   UNL     1      -5.121  -3.835   2.161  0.00  0.00    +0.000 A 
ATOM     12  N   UNL     1      -3.963  -4.186   1.528  0.00  0.00    +0.000 NA
ATOM     13  C   UNL     1      -3.874  -5.460   0.978  0.00  0.00    +0.000 A 
ATOM     14  C   UNL     1      -4.936  -6.339   0.852  0.00  0.00    +0.000 A 
ATOM     15 CL   UNL     1      -4.774  -7.911   0.168  0.00  0.00    +0.000 Cl
ATOM     16  C   UNL     1      -6.142  -5.917   1.375  0.00  0.00    +0.000 A 
ATOM     17  C   UNL     1      -6.195  -4.729   2.140  0.00  0.00    +0.000 A 
ENDROOT
BRANCH   1  18
ATOM     18  O   UNL     1      -6.034  -1.250   0.651  0.00  0.00    +0.000 OA
BRANCH  18  26
ATOM     19  C   UNL     1      -4.101   4.868   1.461  0.00  0.00    +0.000 C 
ATOM     20  N   UNL     1      -4.131   3.748   0.492  0.00  0.00    +0.000 NA
ATOM     21  C   UNL     1      -5.517   3.581  -0.070  0.00  0.00    +0.000 C 
ATOM     22  C   UNL     1      -5.694   2.231  -0.867  0.00  0.00    +0.000 C 
ATOM     23  N   UNL     1      -5.288   0.991  -0.144  0.00  0.00    +0.000 N 
ATOM     24  C   UNL     1      -3.948   1.150   0.471  0.00  0.00    +0.000 C 
ATOM     25  C   UNL     1      -3.861   2.501   1.206  0.00  0.00    +0.000 C 
ATOM     26  C   UNL     1      -6.221  -0.087  -0.091  0.00  0.00    +0.000 C 
ATOM     27  O   UNL     1      -7.266  -0.035  -0.746  0.00  0.00    +0.000 OA
ENDBRANCH  18  26
ENDBRANCH   1  18
TORSDOF 2
