REMARK  Name = Etacrynic acid
REMARK  8 active torsions:
REMARK  status: ('A' for Active; 'I' for Inactive)
REMARK    1  A    between atoms: C_1  and  C_2
REMARK    2  A    between atoms: C_2  and  C_3
REMARK    3  A    between atoms: C_3  and  C_5
REMARK    4  A    between atoms: C_5  and  C_7
REMARK    5  A    between atoms: C_12  and  O_13
REMARK    6  A    between atoms: O_13  and  C_14
REMARK    7  A    between atoms: C_14  and  C_15
REMARK    8  A    between atoms: C_15  and  O_16
REMARK                            x       y       z     vdW  Elec       q    Type
REMARK                         _______ _______ _______ _____ _____    ______ ____
ROOT
ATOM      1  C   UNL     1       5.023   2.546  -2.021  0.00  0.00    +0.000 A 
ATOM      2  C   UNL     1       4.539   3.858  -1.883  0.00  0.00    +0.000 A 
ATOM      3 CL   UNL     1       3.630   4.333  -0.473  0.00  0.00    +0.000 Cl
ATOM      4  C   UNL     1       4.815   4.806  -2.886  0.00  0.00    +0.000 A 
ATOM      5 CL   UNL     1       4.019   6.355  -2.878  0.00  0.00    +0.000 Cl
ATOM      6  C   UNL     1       5.701   4.508  -3.941  0.00  0.00    +0.000 A 
ATOM      7  C   UNL     1       6.291   3.239  -3.986  0.00  0.00    +0.000 A 
ATOM      8  C   UNL     1       5.940   2.257  -3.044  0.00  0.00    +0.000 A 
ENDROOT
BRANCH   1   9
ATOM      9  C   UNL     1       4.531   1.414  -1.177  0.00  0.00    +0.000 C 
ATOM     10  O   UNL     1       5.348   0.669  -0.643  0.00  0.00    +0.000 OA
BRANCH   9  11
ATOM     11  C   UNL     1       3.036   1.169  -1.061  0.00  0.00    +0.000 C 
ATOM     12  C   UNL     1       2.159   1.879  -1.798  0.00  0.00    +0.000 C 
BRANCH  11  14
ATOM     13  C   UNL     1       1.051  -0.014   0.014  0.00  0.00    +0.000 C 
ATOM     14  C   UNL     1       2.577   0.095  -0.087  0.00  0.00    +0.000 C 
ENDBRANCH  11  14
ENDBRANCH   9  11
ENDBRANCH   1   9
BRANCH   6  15
ATOM     15  O   UNL     1       5.925   5.518  -4.850  0.00  0.00    +0.000 OA
BRANCH  15  16
ATOM     16  C   UNL     1       6.872   5.278  -5.885  0.00  0.00    +0.000 C 
BRANCH  16  17
ATOM     17  C   UNL     1       7.052   6.487  -6.793  0.00  0.00    +0.000 C 
ATOM     18  O   UNL     1       7.821   6.487  -7.753  0.00  0.00    +0.000 OA
BRANCH  17  19
ATOM     19  O   UNL     1       6.305   7.566  -6.474  0.00  0.00    +0.000 OA
ATOM     20  H   UNL     1       5.745   7.414  -5.684  0.00  0.00    +0.000 HD
ENDBRANCH  17  19
ENDBRANCH  16  17
ENDBRANCH  15  16
ENDBRANCH   6  15
TORSDOF 7
