REMARK  Name = Etafedrine
REMARK  8 active torsions:
REMARK  status: ('A' for Active; 'I' for Inactive)
REMARK    1  A    between atoms: C_1  and  C_2
REMARK    2  A    between atoms: C_2  and  N_3
REMARK    3  A    between atoms: N_3  and  C_4
REMARK    4  A    between atoms: N_3  and  C_5
REMARK    5  A    between atoms: C_5  and  C_6
REMARK    6  A    between atoms: C_5  and  C_7
REMARK    7  A    between atoms: C_7  and  O_8
REMARK    8  A    between atoms: C_7  and  C_9
REMARK                            x       y       z     vdW  Elec       q    Type
REMARK                         _______ _______ _______ _____ _____    ______ ____
ROOT
ATOM      1  C   UNL     1       4.994  -1.898  -2.103  0.00  0.00    +0.000 C 
ENDROOT
BRANCH   1   2
ATOM      2  C   UNL     1       6.524  -1.903  -1.999  0.00  0.00    +0.000 A 
ATOM      3  C   UNL     1       7.214  -3.114  -2.146  0.00  0.00    +0.000 A 
ATOM      4  C   UNL     1       8.605  -3.150  -2.017  0.00  0.00    +0.000 A 
ATOM      5  C   UNL     1       9.354  -1.983  -1.904  0.00  0.00    +0.000 A 
ATOM      6  C   UNL     1       8.697  -0.769  -1.784  0.00  0.00    +0.000 A 
ATOM      7  C   UNL     1       7.313  -0.776  -1.703  0.00  0.00    +0.000 A 
ENDBRANCH   1   2
BRANCH   1   8
ATOM      8  C   UNL     1       4.369  -1.339  -3.468  0.00  0.00    +0.000 C 
ATOM      9  C   UNL     1       2.979  -1.944  -3.763  0.00  0.00    +0.000 C 
BRANCH   8  10
ATOM     10  N   UNL     1       4.270   0.143  -3.688  0.00  0.00    +0.000 NA
ATOM     11  C   UNL     1       5.591   0.739  -3.620  0.00  0.00    +0.000 C 
BRANCH  10  13
ATOM     12  C   UNL     1       3.437   2.327  -2.727  0.00  0.00    +0.000 C 
ATOM     13  C   UNL     1       3.333   0.808  -2.758  0.00  0.00    +0.000 C 
ENDBRANCH  10  13
ENDBRANCH   8  10
ENDBRANCH   1   8
BRANCH   1  14
ATOM     14  O   UNL     1       4.465  -1.270  -0.938  0.00  0.00    +0.000 OA
ATOM     15  H   UNL     1       4.947  -0.434  -0.839  0.00  0.00    +0.000 HD
ENDBRANCH   1  14
TORSDOF 5
