REMARK  Name = Ethanolamine oleate
REMARK  20 active torsions:
REMARK  status: ('A' for Active; 'I' for Inactive)
REMARK    1  A    between atoms: N_1  and  CA_2
REMARK    2  A    between atoms: CA_2  and  C_3
REMARK    3  A    between atoms: C_3  and  O_4
REMARK    4  A    between atoms: C_5  and  C_6
REMARK    5  A    between atoms: C_6  and  C_7
REMARK    6  A    between atoms: C_7  and  C_8
REMARK    7  A    between atoms: C_8  and  C_9
REMARK    8  A    between atoms: C_9  and  C_10
REMARK    9  A    between atoms: C_10  and  C_11
REMARK   10  A    between atoms: C_11  and  C_12
REMARK   11  A    between atoms: C_12  and  C_13
REMARK   12  A    between atoms: C_14  and  C_15
REMARK   13  A    between atoms: C_15  and  C_16
REMARK   14  A    between atoms: C_16  and  C_17
REMARK   15  A    between atoms: C_17  and  C_18
REMARK   16  A    between atoms: C_18  and  C_19
REMARK   17  A    between atoms: C_19  and  C_20
REMARK   18  A    between atoms: C_20  and  C_21
REMARK   19  A    between atoms: C_21  and  C_22
REMARK   20  A    between atoms: C_22  and  O_23
REMARK                            x       y       z     vdW  Elec       q    Type
REMARK                         _______ _______ _______ _____ _____    ______ ____
ROOT
ATOM      1  CA  GLY A   1       1.637  -0.100   1.435  0.00  0.00    +0.000 C 
ENDROOT
BRANCH   1   2
ATOM      2  N   GLY A   1       0.142  -0.033   1.312  0.00  0.00    +0.000 NA
ATOM      3  H1  GLY A   1      -0.185  -0.780   0.669  0.00  0.00    +0.000 HD
ATOM      4  H2  GLY A   1      -0.146   0.788   0.768  0.00  0.00    +0.000 HD
ENDBRANCH   1   2
BRANCH   1   5
ATOM      5  C   GLY A   1       2.522   1.317   1.557  0.00  0.00    +0.000 C 
BRANCH   5   6
ATOM      6  O   GLY A   1       3.965   1.429   1.359  0.00  0.00    +0.000 OA
ATOM      7  H   GLY A   1       4.479   0.617   1.486  0.00  0.00    +0.000 HD
ENDBRANCH   5   6
ENDBRANCH   1   5
TORSDOF 3
REMARK  Name = Ethanolamine oleate
REMARK  20 active torsions:
REMARK  status: ('A' for Active; 'I' for Inactive)
REMARK    1  A    between atoms: N_1  and  CA_2
REMARK    2  A    between atoms: CA_2  and  C_3
REMARK    3  A    between atoms: C_3  and  O_4
REMARK    4  A    between atoms: C_5  and  C_6
REMARK    5  A    between atoms: C_6  and  C_7
REMARK    6  A    between atoms: C_7  and  C_8
REMARK    7  A    between atoms: C_8  and  C_9
REMARK    8  A    between atoms: C_9  and  C_10
REMARK    9  A    between atoms: C_10  and  C_11
REMARK   10  A    between atoms: C_11  and  C_12
REMARK   11  A    between atoms: C_12  and  C_13
REMARK   12  A    between atoms: C_14  and  C_15
REMARK   13  A    between atoms: C_15  and  C_16
REMARK   14  A    between atoms: C_16  and  C_17
REMARK   15  A    between atoms: C_17  and  C_18
REMARK   16  A    between atoms: C_18  and  C_19
REMARK   17  A    between atoms: C_19  and  C_20
REMARK   18  A    between atoms: C_20  and  C_21
REMARK   19  A    between atoms: C_21  and  C_22
REMARK   20  A    between atoms: C_22  and  O_23
REMARK                            x       y       z     vdW  Elec       q    Type
REMARK                         _______ _______ _______ _____ _____    ______ ____
ROOT
ATOM      1  C   UNL     1      11.407  -4.283  -2.216  0.00  0.00    +0.000 C 
ENDROOT
BRANCH   1   3
ATOM      2  C   UNL     1       9.108  -5.082  -2.612  0.00  0.00    +0.000 C 
ATOM      3  C   UNL     1      10.422  -5.293  -2.717  0.00  0.00    +0.000 C 
BRANCH   2   4
ATOM      4  C   UNL     1       8.595  -3.834  -1.991  0.00  0.00    +0.000 C 
BRANCH   4   5
ATOM      5  C   UNL     1       7.102  -3.859  -1.997  0.00  0.00    +0.000 C 
BRANCH   5   6
ATOM      6  C   UNL     1       6.649  -2.586  -1.359  0.00  0.00    +0.000 C 
BRANCH   6   7
ATOM      7  C   UNL     1       5.164  -2.629  -1.407  0.00  0.00    +0.000 C 
BRANCH   7   8
ATOM      8  C   UNL     1       4.714  -1.315  -0.893  0.00  0.00    +0.000 C 
BRANCH   8   9
ATOM      9  C   UNL     1       3.258  -1.253  -1.257  0.00  0.00    +0.000 C 
BRANCH   9  11
ATOM     10  C   UNL     1       1.386   0.429  -1.336  0.00  0.00    +0.000 C 
ATOM     11  C   UNL     1       2.876   0.193  -1.142  0.00  0.00    +0.000 C 
ENDBRANCH   9  11
ENDBRANCH   8   9
ENDBRANCH   7   8
ENDBRANCH   6   7
ENDBRANCH   5   6
ENDBRANCH   4   5
ENDBRANCH   2   4
ENDBRANCH   1   3
BRANCH   1  12
ATOM     12  C   UNL     1      12.821  -4.755  -2.451  0.00  0.00    +0.000 C 
BRANCH  12  13
ATOM     13  C   UNL     1      13.795  -3.712  -1.933  0.00  0.00    +0.000 C 
BRANCH  13  14
ATOM     14  C   UNL     1      15.214  -4.186  -2.168  0.00  0.00    +0.000 C 
BRANCH  14  15
ATOM     15  C   UNL     1      16.204  -3.154  -1.656  0.00  0.00    +0.000 C 
BRANCH  15  16
ATOM     16  C   UNL     1      17.616  -3.655  -1.904  0.00  0.00    +0.000 C 
BRANCH  16  17
ATOM     17  C   UNL     1      18.659  -2.667  -1.414  0.00  0.00    +0.000 C 
BRANCH  17  18
ATOM     18  C   UNL     1      20.082  -3.100  -1.629  0.00  0.00    +0.000 C 
ATOM     19  O   UNL     1      21.043  -2.377  -1.270  0.00  0.00    +0.000 OA
BRANCH  18  20
ATOM     20  O   UNL     1      20.308  -4.281  -2.215  0.00  0.00    +0.000 OA
ATOM     21  H   UNL     1      19.528  -4.807  -2.476  0.00  0.00    +0.000 HD
ENDBRANCH  18  20
ENDBRANCH  17  18
ENDBRANCH  16  17
ENDBRANCH  15  16
ENDBRANCH  14  15
ENDBRANCH  13  14
ENDBRANCH  12  13
ENDBRANCH   1  12
TORSDOF 16
