REMARK  Name = Ethambutol
REMARK  13 active torsions:
REMARK  status: ('A' for Active; 'I' for Inactive)
REMARK    1  A    between atoms: C_1  and  C_2
REMARK    2  A    between atoms: C_2  and  CA_3
REMARK    3  A    between atoms: CA_3  and  C_4
REMARK    4  A    between atoms: CA_3  and  N_6
REMARK    5  A    between atoms: C_4  and  O_5
REMARK    6  A    between atoms: N_6  and  C_7
REMARK    7  A    between atoms: C_7  and  C_8
REMARK    8  A    between atoms: C_8  and  N_9
REMARK    9  A    between atoms: N_9  and  CA_10
REMARK   10  A    between atoms: CA_10  and  C_11
REMARK   11  A    between atoms: CA_10  and  C_13
REMARK   12  A    between atoms: C_11  and  C_12
REMARK   13  A    between atoms: C_13  and  O_14
REMARK                            x       y       z     vdW  Elec       q    Type
REMARK                         _______ _______ _______ _____ _____    ______ ____
ROOT
ATOM      1  C   UNL     1       4.841   2.383   1.830  0.00  0.00    +0.000 C 
ENDROOT
BRANCH   1   2
ATOM      2  N   UNL     1       4.349   1.267   1.007  0.00  0.00    +0.000 NA
ATOM      3  H   UNL     1       4.709   1.361   0.053  0.00  0.00    +0.000 HD
BRANCH   2   4
ATOM      4  CA  UNL     1       2.880   1.228   0.978  0.00  0.00    +0.000 C 
BRANCH   4   6
ATOM      5  C   UNL     1       0.920  -0.018  -0.092  0.00  0.00    +0.000 C 
ATOM      6  C   UNL     1       2.433   0.070   0.058  0.00  0.00    +0.000 C 
ENDBRANCH   4   6
BRANCH   4   7
ATOM      7  C   UNL     1       2.325   1.095   2.419  0.00  0.00    +0.000 C 
BRANCH   7   8
ATOM      8  O   UNL     1       0.916   1.216   2.503  0.00  0.00    +0.000 OA
ATOM      9  H   UNL     1       0.668   2.006   1.990  0.00  0.00    +0.000 HD
ENDBRANCH   7   8
ENDBRANCH   4   7
ENDBRANCH   2   4
ENDBRANCH   1   2
BRANCH   1  10
ATOM     10  C   UNL     1       6.354   2.379   1.807  0.00  0.00    +0.000 C 
BRANCH  10  11
ATOM     11  N   UNL     1       6.947   3.485   2.541  0.00  0.00    +0.000 NA
ATOM     12  H   UNL     1       6.665   3.423   3.522  0.00  0.00    +0.000 HD
BRANCH  11  13
ATOM     13  CA  UNL     1       8.418   3.483   2.447  0.00  0.00    +0.000 C 
BRANCH  13  14
ATOM     14  C   UNL     1       8.989   3.636   1.007  0.00  0.00    +0.000 C 
ATOM     15  C   UNL     1       8.782   2.484   0.020  0.00  0.00    +0.000 C 
ENDBRANCH  13  14
BRANCH  13  16
ATOM     16  C   UNL     1       8.945   4.645   3.335  0.00  0.00    +0.000 C 
BRANCH  16  17
ATOM     17  O   UNL     1      10.365   4.675   3.394  0.00  0.00    +0.000 OA
ATOM     18  H   UNL     1      10.663   3.807   3.738  0.00  0.00    +0.000 HD
ENDBRANCH  16  17
ENDBRANCH  13  16
ENDBRANCH  11  13
ENDBRANCH  10  11
ENDBRANCH   1  10
TORSDOF 11
