REMARK  Name = Ethchlorvynol
REMARK  5 active torsions:
REMARK  status: ('A' for Active; 'I' for Inactive)
REMARK    1  A    between atoms: C_1  and  C_2
REMARK    2  A    between atoms: C_2  and  C_3
REMARK    3  A    between atoms: C_3  and  O_4
REMARK    4  A    between atoms: C_3  and  C_5
REMARK    5  A    between atoms: C_3  and  C_8
REMARK                            x       y       z     vdW  Elec       q    Type
REMARK                         _______ _______ _______ _____ _____    ______ ____
ROOT
ATOM      1  C   UNL     1       2.957   0.841   1.071  0.00  0.00    +0.000 C 
ENDROOT
BRANCH   1   2
ATOM      2  C   UNL     1       2.464   0.363   2.426  0.00  0.00    +0.000 C 
ATOM      3  C   UNL     1       1.183   0.352   2.831  0.00  0.00    +0.000 C 
ATOM      4 CL   UNL     1       0.653  -0.365   4.290  0.00  0.00    +0.000 Cl
ENDBRANCH   1   2
BRANCH   1   6
ATOM      5  C   UNL     1       0.924  -0.121  -0.245  0.00  0.00    +0.000 C 
ATOM      6  C   UNL     1       2.445  -0.046  -0.093  0.00  0.00    +0.000 C 
ENDBRANCH   1   6
BRANCH   1   7
ATOM      7  O   UNL     1       2.548   2.190   0.873  0.00  0.00    +0.000 OA
ATOM      8  H   UNL     1       1.583   2.228   0.928  0.00  0.00    +0.000 HD
ENDBRANCH   1   7
BRANCH   1   9
ATOM      9  C   UNL     1       4.477   0.841   1.071  0.00  0.00    +0.000 C 
ATOM     10  C   UNL     1       5.780   0.841   1.071  0.00  0.00    +0.000 C 
ENDBRANCH   1   9
TORSDOF 4
