REMARK  Name = Ethinylestradiol
REMARK  4 active torsions:
REMARK  status: ('A' for Active; 'I' for Inactive)
REMARK    1  A    between atoms: C_5  and  O_6
REMARK    2  A    between atoms: C_5  and  C_7
REMARK    3  A    between atoms: C_9  and  C_10
REMARK    4  A    between atoms: C_22  and  O_23
REMARK                            x       y       z     vdW  Elec       q    Type
REMARK                         _______ _______ _______ _____ _____    ______ ____
ROOT
ATOM      1  C   UNL     1       1.865  -0.080  -0.176  0.00  0.00    +0.000 C 
ATOM      2  C   UNL     1       2.330  -0.391  -1.477  0.00  0.00    +0.000 C 
ATOM      3  C   UNL     1       3.269  -0.507  -0.332  0.00  0.00    +0.000 C 
ATOM      4  C   UNL     1       2.308  -0.655   1.518  0.00  0.00    +0.000 C 
ATOM      5  C   UNL     1       2.784  -1.564   0.627  0.00  0.00    +0.000 C 
ATOM      6  C   UNL     1       2.296  -2.921   0.321  0.00  0.00    +0.000 C 
ATOM      7  C   UNL     1       4.446  -1.256   1.346  0.00  0.00    +0.000 C 
ATOM      8  C   UNL     1       4.576   0.300   1.881  0.00  0.00    +0.000 C 
ATOM      9  C   UNL     1       4.061   1.514   0.961  0.00  0.00    +0.000 C 
ATOM     10  C   UNL     1       4.316   2.890   1.492  0.00  0.00    +0.000 A 
ATOM     11  C   UNL     1       3.509   3.978   1.096  0.00  0.00    +0.000 A 
ATOM     12  C   UNL     1       2.313   3.849   0.173  0.00  0.00    +0.000 C 
ATOM     13  C   UNL     1       2.214   2.521  -0.536  0.00  0.00    +0.000 C 
ATOM     14  C   UNL     1       2.479   1.452   0.493  0.00  0.00    +0.000 C 
ATOM     15  C   UNL     1       3.788   5.230   1.634  0.00  0.00    +0.000 A 
ATOM     16  C   UNL     1       4.880   5.390   2.485  0.00  0.00    +0.000 A 
ATOM     17  C   UNL     1       5.716   4.335   2.803  0.00  0.00    +0.000 A 
ATOM     18  C   UNL     1       5.446   3.088   2.289  0.00  0.00    +0.000 A 
ENDROOT
BRANCH   4  19
ATOM     19  O   UNL     1       2.533  -1.552   2.669  0.00  0.00    +0.000 OA
ATOM     20  H   UNL     1       3.279  -1.409   3.264  0.00  0.00    +0.000 HD
ENDBRANCH   4  19
BRANCH   4  21
ATOM     21  C   UNL     1       0.719  -0.833   1.679  0.00  0.00    +0.000 C 
ATOM     22  C   UNL     1      -0.474  -1.065   1.831  0.00  0.00    +0.000 C 
ENDBRANCH   4  21
BRANCH  16  23
ATOM     23  O   UNL     1       5.179   6.597   3.038  0.00  0.00    +0.000 OA
ATOM     24  H   UNL     1       4.520   7.238   2.732  0.00  0.00    +0.000 HD
ENDBRANCH  16  23
TORSDOF 3
