REMARK  Name = Ethinamate
REMARK  3 active torsions:
REMARK  status: ('A' for Active; 'I' for Inactive)
REMARK    1  A    between atoms: C_2  and  O_4
REMARK    2  A    between atoms: O_4  and  C_5
REMARK    3  A    between atoms: C_5  and  C_11
REMARK                            x       y       z     vdW  Elec       q    Type
REMARK                         _______ _______ _______ _____ _____    ______ ____
ROOT
ATOM      1  C   UNL     1       4.603  -1.251   0.142  0.00  0.00    +0.000 C 
ATOM      2  C   UNL     1       5.130  -0.390   1.308  0.00  0.00    +0.000 C 
ATOM      3  C   UNL     1       4.672  -0.959   2.643  0.00  0.00    +0.000 C 
ATOM      4  C   UNL     1       5.171  -2.389   2.798  0.00  0.00    +0.000 C 
ATOM      5  C   UNL     1       4.673  -3.272   1.653  0.00  0.00    +0.000 C 
ATOM      6  C   UNL     1       5.079  -2.698   0.295  0.00  0.00    +0.000 C 
ENDROOT
BRANCH   1   7
ATOM      7  C   UNL     1       5.104  -0.663  -1.167  0.00  0.00    +0.000 C 
ATOM      8  C   UNL     1       5.533  -0.158  -2.290  0.00  0.00    +0.000 C 
ENDBRANCH   1   7
BRANCH   1   9
ATOM      9  O   UNL     1       3.128  -1.218   0.123  0.00  0.00    +0.000 OA
BRANCH   9  11
ATOM     10  N   UNL     1       1.151  -0.132  -0.072  0.00  0.00    +0.000 N 
ATOM     11  C   UNL     1       2.503  -0.027  -0.097  0.00  0.00    +0.000 C 
ATOM     12  O   UNL     1       3.027   1.062  -0.288  0.00  0.00    +0.000 OA
ATOM     13  H   UNL     1       0.624   0.716  -0.236  0.00  0.00    +0.000 HD
ATOM     14  H   UNL     1       0.668  -1.001   0.083  0.00  0.00    +0.000 HD
ENDBRANCH   9  11
ENDBRANCH   1   9
TORSDOF 3
