REMARK  Name = Ethionamide
REMARK  4 active torsions:
REMARK  status: ('A' for Active; 'I' for Inactive)
REMARK    1  A    between atoms: C_1  and  C_2
REMARK    2  A    between atoms: C_2  and  C_3
REMARK    3  A    between atoms: C_7  and  C_9
REMARK    4  A    between atoms: C_9  and  N_10
REMARK                            x       y       z     vdW  Elec       q    Type
REMARK                         _______ _______ _______ _____ _____    ______ ____
ROOT
ATOM      1  C   UNL     1       3.008  -0.841  -1.276  0.00  0.00    +0.000 A 
ATOM      2  N   UNL     1       3.568  -0.182  -2.310  0.00  0.00    +0.000 NA
ATOM      3  C   UNL     1       3.896  -0.910  -3.398  0.00  0.00    +0.000 A 
ATOM      4  C   UNL     1       3.678  -2.275  -3.507  0.00  0.00    +0.000 A 
ATOM      5  C   UNL     1       3.100  -2.956  -2.433  0.00  0.00    +0.000 A 
ATOM      6  C   UNL     1       2.778  -2.216  -1.294  0.00  0.00    +0.000 A 
ENDROOT
BRANCH   1   8
ATOM      7  C   UNL     1       1.009   0.001  -0.061  0.00  0.00    +0.000 C 
ATOM      8  C   UNL     1       2.532  -0.033  -0.096  0.00  0.00    +0.000 C 
ENDBRANCH   1   8
BRANCH   5   9
ATOM      9  C   UNL     1       2.805  -4.425  -2.499  0.00  0.00    +0.000 C 
ATOM     10  S   UNL     1       3.129  -5.430  -3.801  0.00  0.00    +0.000 S 
BRANCH   9  11
ATOM     11  N   UNL     1       2.210  -5.023  -1.414  0.00  0.00    +0.000 N 
ATOM     12  H   UNL     1       1.939  -4.570  -0.554  0.00  0.00    +0.000 HD
ATOM     13  H   UNL     1       2.013  -6.016  -1.472  0.00  0.00    +0.000 HD
ENDBRANCH   9  11
ENDBRANCH   5   9
TORSDOF 3
