REMARK  Name = Ethoheptazine
REMARK  6 active torsions:
REMARK  status: ('A' for Active; 'I' for Inactive)
REMARK    1  A    between atoms: C_1  and  C_2
REMARK    2  A    between atoms: C_2  and  O_3
REMARK    3  A    between atoms: O_3  and  C_4
REMARK    4  A    between atoms: C_4  and  C_6
REMARK    5  A    between atoms: C_6  and  C_14
REMARK    6  A    between atoms: N_10  and  C_11
REMARK                            x       y       z     vdW  Elec       q    Type
REMARK                         _______ _______ _______ _____ _____    ______ ____
ROOT
ATOM      1  C   UNL     1       4.932   1.629   2.496  0.00  0.00    +0.000 C 
ATOM      2  C   UNL     1       6.433   1.384   2.815  0.00  0.00    +0.000 C 
ATOM      3  C   UNL     1       6.946   2.170   4.045  0.00  0.00    +0.000 C 
ATOM      4  C   UNL     1       7.194   3.637   3.744  0.00  0.00    +0.000 C 
ATOM      5  N   UNL     1       6.035   4.517   3.955  0.00  0.00    +0.000 NA
ATOM      6  C   UNL     1       5.896   4.857   5.380  0.00  0.00    +0.000 C 
ATOM      7  C   UNL     1       4.737   4.019   3.471  0.00  0.00    +0.000 C 
ATOM      8  C   UNL     1       4.753   3.153   2.202  0.00  0.00    +0.000 C 
ENDROOT
BRANCH   1   9
ATOM      9  C   UNL     1       4.070   1.113   3.679  0.00  0.00    +0.000 A 
ATOM     10  C   UNL     1       4.616   0.393   4.765  0.00  0.00    +0.000 A 
ATOM     11  C   UNL     1       3.842  -0.037   5.829  0.00  0.00    +0.000 A 
ATOM     12  C   UNL     1       2.481   0.211   5.815  0.00  0.00    +0.000 A 
ATOM     13  C   UNL     1       1.907   0.904   4.752  0.00  0.00    +0.000 A 
ATOM     14  C   UNL     1       2.696   1.380   3.711  0.00  0.00    +0.000 A 
ENDBRANCH   1   9
BRANCH   1  15
ATOM     15  C   UNL     1       4.524   0.849   1.202  0.00  0.00    +0.000 C 
ATOM     16  O   UNL     1       5.319   0.344   0.407  0.00  0.00    +0.000 OA
BRANCH  15  17
ATOM     17  O   UNL     1       3.165   0.812   1.029  0.00  0.00    +0.000 OA
BRANCH  17  19
ATOM     18  C   UNL     1       1.140   0.037  -0.044  0.00  0.00    +0.000 C 
ATOM     19  C   UNL     1       2.664   0.036  -0.070  0.00  0.00    +0.000 C 
ENDBRANCH  17  19
ENDBRANCH  15  17
ENDBRANCH   1  15
TORSDOF 4
