REMARK  Name = Ethosuximide
REMARK  3 active torsions:
REMARK  status: ('A' for Active; 'I' for Inactive)
REMARK    1  A    between atoms: C_1  and  C_2
REMARK    2  A    between atoms: C_2  and  C_3
REMARK    3  A    between atoms: C_3  and  C_4
REMARK                            x       y       z     vdW  Elec       q    Type
REMARK                         _______ _______ _______ _____ _____    ______ ____
ROOT
ATOM      1  C   UNL     1       3.065  -0.789  -1.254  0.00  0.00    +0.000 C 
ATOM      2  C   UNL     1       2.514  -0.057  -2.491  0.00  0.00    +0.000 C 
ATOM      3  C   UNL     1       4.601  -0.831  -1.370  0.00  0.00    +0.000 C 
ATOM      4  C   UNL     1       4.798  -2.068  -2.204  0.00  0.00    +0.000 C 
ATOM      5  O   UNL     1       5.679  -2.262  -3.028  0.00  0.00    +0.000 OA
ATOM      6  N   UNL     1       3.801  -2.925  -1.881  0.00  0.00    +0.000 N 
ATOM      7  C   UNL     1       2.765  -2.288  -1.279  0.00  0.00    +0.000 C 
ATOM      8  O   UNL     1       1.758  -2.851  -0.884  0.00  0.00    +0.000 OA
ATOM      9  H   UNL     1       3.755  -3.890  -2.169  0.00  0.00    +0.000 HD
ENDROOT
BRANCH   1  11
ATOM     10  C   UNL     1       1.031  -0.039   0.104  0.00  0.00    +0.000 C 
ATOM     11  C   UNL     1       2.558  -0.107   0.026  0.00  0.00    +0.000 C 
ENDBRANCH   1  11
TORSDOF 1
