REMARK  Name = Ethotoin
REMARK  3 active torsions:
REMARK  status: ('A' for Active; 'I' for Inactive)
REMARK    1  A    between atoms: C_1  and  C_2
REMARK    2  A    between atoms: C_2  and  N_3
REMARK    3  A    between atoms: C_7  and  C_10
REMARK                            x       y       z     vdW  Elec       q    Type
REMARK                         _______ _______ _______ _____ _____    ______ ____
ROOT
ATOM      1  N   UNL     1       2.841  -1.258  -0.695  0.00  0.00    +0.000 N 
ATOM      2  C   UNL     1       3.762  -1.310  -1.698  0.00  0.00    +0.000 C 
ATOM      3  O   UNL     1       4.379  -0.379  -2.197  0.00  0.00    +0.000 OA
ATOM      4  N   UNL     1       3.911  -2.618  -2.095  0.00  0.00    +0.000 N 
ATOM      5  C   UNL     1       3.079  -3.504  -1.339  0.00  0.00    +0.000 C 
ATOM      6  C   UNL     1       2.392  -2.518  -0.398  0.00  0.00    +0.000 C 
ATOM      7  O   UNL     1       1.589  -2.826   0.474  0.00  0.00    +0.000 OA
ATOM      8  H   UNL     1       4.540  -2.892  -2.836  0.00  0.00    +0.000 HD
ENDROOT
BRANCH   5   9
ATOM      9  C   UNL     1       3.842  -4.543  -0.569  0.00  0.00    +0.000 A 
ATOM     10  C   UNL     1       3.484  -5.891  -0.696  0.00  0.00    +0.000 A 
ATOM     11  C   UNL     1       3.994  -6.834   0.190  0.00  0.00    +0.000 A 
ATOM     12  C   UNL     1       4.938  -6.459   1.145  0.00  0.00    +0.000 A 
ATOM     13  C   UNL     1       5.349  -5.131   1.240  0.00  0.00    +0.000 A 
ATOM     14  C   UNL     1       4.803  -4.175   0.388  0.00  0.00    +0.000 A 
ENDBRANCH   5   9
BRANCH   1  16
ATOM     15  C   UNL     1       0.890   0.041   0.020  0.00  0.00    +0.000 C 
ATOM     16  C   UNL     1       2.408  -0.058  -0.005  0.00  0.00    +0.000 C 
ENDBRANCH   1  16
TORSDOF 2
