REMARK  Name = Ethyl hydroxybenzoate
REMARK  5 active torsions:
REMARK  status: ('A' for Active; 'I' for Inactive)
REMARK    1  A    between atoms: C_1  and  C_2
REMARK    2  A    between atoms: C_2  and  O_3
REMARK    3  A    between atoms: O_3  and  C_4
REMARK    4  A    between atoms: C_4  and  C_6
REMARK    5  A    between atoms: C_9  and  O_10
REMARK                            x       y       z     vdW  Elec       q    Type
REMARK                         _______ _______ _______ _____ _____    ______ ____
ROOT
ATOM      1  C   UNL     1       4.893  -3.012   0.506  0.00  0.00    +0.000 A 
ATOM      2  C   UNL     1       4.322  -4.079  -0.201  0.00  0.00    +0.000 A 
ATOM      3  C   UNL     1       4.800  -5.389  -0.019  0.00  0.00    +0.000 A 
ATOM      4  C   UNL     1       5.843  -5.626   0.874  0.00  0.00    +0.000 A 
ATOM      5  C   UNL     1       6.414  -4.576   1.584  0.00  0.00    +0.000 A 
ATOM      6  C   UNL     1       5.949  -3.269   1.393  0.00  0.00    +0.000 A 
ENDROOT
BRANCH   1   7
ATOM      7  C   UNL     1       4.467  -1.602   0.280  0.00  0.00    +0.000 C 
ATOM      8  O   UNL     1       5.269  -0.680   0.204  0.00  0.00    +0.000 OA
BRANCH   7   9
ATOM      9  O   UNL     1       3.112  -1.483   0.218  0.00  0.00    +0.000 OA
BRANCH   9  11
ATOM     10  C   UNL     1       1.122  -0.098   0.041  0.00  0.00    +0.000 C 
ATOM     11  C   UNL     1       2.644  -0.129   0.040  0.00  0.00    +0.000 C 
ENDBRANCH   9  11
ENDBRANCH   7   9
ENDBRANCH   1   7
BRANCH   4  12
ATOM     12  O   UNL     1       6.353  -6.873   1.087  0.00  0.00    +0.000 OA
ATOM     13  H   UNL     1       5.899  -7.518   0.520  0.00  0.00    +0.000 HD
ENDBRANCH   4  12
TORSDOF 4
