REMARK  Name = Ethyl chloride
REMARK  1 active torsions:
REMARK  status: ('A' for Active; 'I' for Inactive)
REMARK    1  A    between atoms: C_1  and  C_2
REMARK                            x       y       z     vdW  Elec       q    Type
REMARK                         _______ _______ _______ _____ _____    ______ ____
ROOT
ATOM      1  C   UNL     1       1.067  -0.052   0.052  0.00  0.00    +0.000 C 
ATOM      2  C   UNL     1       2.581  -0.052   0.052  0.00  0.00    +0.000 C 
ATOM      3 CL   UNL     1       3.204   0.529  -1.507  0.00  0.00    +0.000 Cl
ENDROOT
TORSDOF 0
