REMARK  Name = Ethyl ferulate
REMARK  8 active torsions:
REMARK  status: ('A' for Active; 'I' for Inactive)
REMARK    1  A    between atoms: C_2  and  C_14
REMARK    2  A    between atoms: C_3  and  C_5
REMARK    3  A    between atoms: C_7  and  O_8
REMARK    4  A    between atoms: O_8  and  C_9
REMARK    5  A    between atoms: C_10  and  O_11
REMARK    6  A    between atoms: C_14  and  O_16
REMARK    7  A    between atoms: O_16  and  C_17
REMARK    8  A    between atoms: C_17  and  C_18
REMARK                            x       y       z     vdW  Elec       q    Type
REMARK                         _______ _______ _______ _____ _____    ______ ____
ROOT
ATOM      1  C   UNL     1       2.051   2.209   1.148  0.00  0.00    +0.000 A 
ATOM      2  C   UNL     1       0.978   1.942   2.016  0.00  0.00    +0.000 A 
ATOM      3  C   UNL     1       0.200   2.975   2.553  0.00  0.00    +0.000 A 
ATOM      4  C   UNL     1       0.511   4.295   2.218  0.00  0.00    +0.000 A 
ATOM      5  C   UNL     1       1.590   4.586   1.390  0.00  0.00    +0.000 A 
ATOM      6  C   UNL     1       2.367   3.544   0.866  0.00  0.00    +0.000 A 
ENDROOT
BRANCH   1   8
ATOM      7  C   UNL     1       2.255   0.027   0.011  0.00  0.00    +0.000 C 
ATOM      8  C   UNL     1       2.839   1.105   0.563  0.00  0.00    +0.000 C 
BRANCH   7   9
ATOM      9  C   UNL     1       2.941  -1.141  -0.589  0.00  0.00    +0.000 C 
ATOM     10  O   UNL     1       2.304  -2.076  -1.063  0.00  0.00    +0.000 OA
BRANCH   9  11
ATOM     11  O   UNL     1       4.292  -1.049  -0.538  0.00  0.00    +0.000 OA
BRANCH  11  12
ATOM     12  C   UNL     1       4.985  -2.172  -1.115  0.00  0.00    +0.000 C 
ATOM     13  C   UNL     1       6.483  -1.948  -0.999  0.00  0.00    +0.000 C 
ENDBRANCH  11  12
ENDBRANCH   9  11
ENDBRANCH   7   9
ENDBRANCH   1   8
BRANCH   3  14
ATOM     14  O   UNL     1      -0.870   2.803   3.396  0.00  0.00    +0.000 OA
ATOM     15  C   UNL     1      -1.166   1.454   3.752  0.00  0.00    +0.000 C 
ENDBRANCH   3  14
BRANCH   4  16
ATOM     16  O   UNL     1      -0.233   5.343   2.689  0.00  0.00    +0.000 OA
ATOM     17  H   UNL     1      -0.942   4.949   3.232  0.00  0.00    +0.000 HD
ENDBRANCH   4  16
TORSDOF 6
