REMARK  Name = Ethynodiol diacetate
REMARK  8 active torsions:
REMARK  status: ('A' for Active; 'I' for Inactive)
REMARK    1  A    between atoms: C_5  and  O_6
REMARK    2  A    between atoms: C_5  and  C_10
REMARK    3  A    between atoms: O_6  and  C_7
REMARK    4  A    between atoms: C_7  and  C_8
REMARK    5  A    between atoms: C_12  and  C_13
REMARK    6  A    between atoms: C_22  and  O_23
REMARK    7  A    between atoms: O_23  and  C_24
REMARK    8  A    between atoms: C_24  and  C_25
REMARK                            x       y       z     vdW  Elec       q    Type
REMARK                         _______ _______ _______ _____ _____    ______ ____
ROOT
ATOM      1  C   UNL     1       1.663   0.172  -0.339  0.00  0.00    +0.000 C 
ATOM      2  C   UNL     1       2.110   0.166  -1.685  0.00  0.00    +0.000 C 
ATOM      3  C   UNL     1       3.129  -0.278  -0.682  0.00  0.00    +0.000 C 
ATOM      4  C   UNL     1       2.345  -0.908   1.145  0.00  0.00    +0.000 C 
ATOM      5  C   UNL     1       2.517  -1.457  -0.059  0.00  0.00    +0.000 C 
ATOM      6  C   UNL     1       2.018  -2.530  -0.894  0.00  0.00    +0.000 C 
ATOM      7  C   UNL     1       4.262  -1.534   0.577  0.00  0.00    +0.000 C 
ATOM      8  C   UNL     1       4.535  -0.182   1.376  0.00  0.00    +0.000 C 
ATOM      9  C   UNL     1       3.910   1.233   0.923  0.00  0.00    +0.000 C 
ATOM     10  C   UNL     1       4.351   2.317   1.792  0.00  0.00    +0.000 C 
ATOM     11  C   UNL     1       5.695   2.045   1.958  0.00  0.00    +0.000 C 
ATOM     12  C   UNL     1       6.781   1.386   2.446  0.00  0.00    +0.000 C 
ATOM     13  C   UNL     1       7.689   2.709   1.849  0.00  0.00    +0.000 C 
ATOM     14  C   UNL     1       6.275   3.744   0.852  0.00  0.00    +0.000 C 
ATOM     15  C   UNL     1       4.726   3.532   0.934  0.00  0.00    +0.000 C 
ATOM     16  C   UNL     1       3.071   3.913   0.574  0.00  0.00    +0.000 C 
ATOM     17  C   UNL     1       2.160   2.754  -0.037  0.00  0.00    +0.000 C 
ATOM     18  C   UNL     1       2.381   1.422   0.649  0.00  0.00    +0.000 C 
ENDROOT
BRANCH   4  19
ATOM     19  C   UNL     1       0.803  -0.930   1.574  0.00  0.00    +0.000 C 
ATOM     20  C   UNL     1      -0.324  -1.057   1.882  0.00  0.00    +0.000 C 
ENDBRANCH   4  19
BRANCH   4  21
ATOM     21  O   UNL     1       2.781  -2.200   2.148  0.00  0.00    +0.000 OA
BRANCH  21  22
ATOM     22  C   UNL     1       2.602  -3.599   2.211  0.00  0.00    +0.000 C 
ATOM     23  C   UNL     1       2.031  -4.232   1.014  0.00  0.00    +0.000 C 
ATOM     24  O   UNL     1       2.990  -4.317   3.129  0.00  0.00    +0.000 OA
ENDBRANCH  21  22
ENDBRANCH   4  21
BRANCH  13  25
ATOM     25  O   UNL     1       8.512   1.192   2.298  0.00  0.00    +0.000 OA
BRANCH  25  26
ATOM     26  C   UNL     1       9.556   0.411   2.723  0.00  0.00    +0.000 C 
ATOM     27  C   UNL     1      10.870   0.980   2.393  0.00  0.00    +0.000 C 
ATOM     28  O   UNL     1       9.476  -0.686   3.285  0.00  0.00    +0.000 OA
ENDBRANCH  25  26
ENDBRANCH  13  25
TORSDOF 5
