REMARK  Name = Ethyl salicylate
REMARK  5 active torsions:
REMARK  status: ('A' for Active; 'I' for Inactive)
REMARK    1  A    between atoms: C_1  and  C_2
REMARK    2  A    between atoms: C_2  and  O_3
REMARK    3  A    between atoms: O_3  and  C_4
REMARK    4  A    between atoms: C_4  and  C_6
REMARK    5  A    between atoms: C_11  and  O_12
REMARK                            x       y       z     vdW  Elec       q    Type
REMARK                         _______ _______ _______ _____ _____    ______ ____
ROOT
ATOM      1  C   UNL     1       4.912  -2.933   0.211  0.00  0.00    +0.000 A 
ATOM      2  C   UNL     1       5.975  -3.264   1.069  0.00  0.00    +0.000 A 
ATOM      3  C   UNL     1       6.464  -4.575   1.126  0.00  0.00    +0.000 A 
ATOM      4  C   UNL     1       5.910  -5.559   0.309  0.00  0.00    +0.000 A 
ATOM      5  C   UNL     1       4.862  -5.237  -0.559  0.00  0.00    +0.000 A 
ATOM      6  C   UNL     1       4.363  -3.929  -0.605  0.00  0.00    +0.000 A 
ENDROOT
BRANCH   1   7
ATOM      7  C   UNL     1       4.483  -1.513   0.135  0.00  0.00    +0.000 C 
ATOM      8  O   UNL     1       5.289  -0.590   0.138  0.00  0.00    +0.000 OA
BRANCH   7   9
ATOM      9  O   UNL     1       3.129  -1.383   0.140  0.00  0.00    +0.000 OA
BRANCH   9  11
ATOM     10  C   UNL     1       1.139  -0.007   0.044  0.00  0.00    +0.000 C 
ATOM     11  C   UNL     1       2.660  -0.026   0.050  0.00  0.00    +0.000 C 
ENDBRANCH   9  11
ENDBRANCH   7   9
ENDBRANCH   1   7
BRANCH   6  12
ATOM     12  O   UNL     1       3.368  -3.614  -1.487  0.00  0.00    +0.000 OA
ATOM     13  H   UNL     1       3.056  -4.416  -1.935  0.00  0.00    +0.000 HD
ENDBRANCH   6  12
TORSDOF 4
