REMARK  Name = Ethylenediamine
REMARK  3 active torsions:
REMARK  status: ('A' for Active; 'I' for Inactive)
REMARK    1  A    between atoms: N_1  and  C_2
REMARK    2  A    between atoms: C_2  and  C_3
REMARK    3  A    between atoms: C_3  and  N_4
REMARK                            x       y       z     vdW  Elec       q    Type
REMARK                         _______ _______ _______ _____ _____    ______ ____
ROOT
ATOM      1  C   UNL     1       2.531   0.052   0.010  0.00  0.00    +0.000 C 
ENDROOT
BRANCH   1   2
ATOM      2  N   UNL     1       1.068   0.065   0.020  0.00  0.00    +0.000 NA
ATOM      3  H   UNL     1       0.742  -0.232   0.939  0.00  0.00    +0.000 HD
ATOM      4  H   UNL     1       0.724  -0.634  -0.638  0.00  0.00    +0.000 HD
ENDBRANCH   1   2
BRANCH   1   5
ATOM      5  C   UNL     1       3.087   0.430  -1.372  0.00  0.00    +0.000 C 
BRANCH   5   6
ATOM      6  N   UNL     1       4.549   0.417  -1.382  0.00  0.00    +0.000 NA
ATOM      7  H   UNL     1       4.893   1.116  -0.724  0.00  0.00    +0.000 HD
ATOM      8  H   UNL     1       4.875   0.714  -2.301  0.00  0.00    +0.000 HD
ENDBRANCH   5   6
ENDBRANCH   1   5
TORSDOF 3
