REMARK  Name = Ethylhexyl methoxycrylene
REMARK  15 active torsions:
REMARK  status: ('A' for Active; 'I' for Inactive)
REMARK    1  A    between atoms: C_1  and  C_2
REMARK    2  A    between atoms: C_2  and  C_3
REMARK    3  A    between atoms: C_3  and  C_4
REMARK    4  A    between atoms: C_4  and  C_5
REMARK    5  A    between atoms: C_5  and  C_6
REMARK    6  A    between atoms: C_5  and  C_8
REMARK    7  A    between atoms: C_6  and  C_7
REMARK    8  A    between atoms: C_8  and  O_9
REMARK    9  A    between atoms: O_9  and  C_10
REMARK   10  A    between atoms: C_10  and  C_12
REMARK   11  A    between atoms: C_12  and  C_13
REMARK   12  A    between atoms: C_15  and  C_16
REMARK   13  A    between atoms: C_15  and  C_22
REMARK   14  A    between atoms: C_25  and  O_26
REMARK   15  A    between atoms: O_26  and  C_27
REMARK                            x       y       z     vdW  Elec       q    Type
REMARK                         _______ _______ _______ _____ _____    ______ ____
ROOT
ATOM      1  C   UNL     1       8.921  -5.485   1.971  0.00  0.00    +0.000 C 
ATOM      2  C   UNL     1      10.264  -5.750   2.083  0.00  0.00    +0.000 C 
ENDROOT
BRANCH   2   3
ATOM      3  C   UNL     1      11.287  -4.693   1.763  0.00  0.00    +0.000 A 
ATOM      4  C   UNL     1      12.414  -4.960   0.967  0.00  0.00    +0.000 A 
ATOM      5  C   UNL     1      13.398  -3.979   0.791  0.00  0.00    +0.000 A 
ATOM      6  C   UNL     1      13.193  -2.686   1.270  0.00  0.00    +0.000 A 
ATOM      7  C   UNL     1      12.075  -2.406   2.040  0.00  0.00    +0.000 A 
ATOM      8  C   UNL     1      11.182  -3.425   2.351  0.00  0.00    +0.000 A 
ENDBRANCH   2   3
BRANCH   2   9
ATOM      9  C   UNL     1      10.785  -7.099   2.536  0.00  0.00    +0.000 A 
ATOM     10  C   UNL     1      11.922  -7.187   3.361  0.00  0.00    +0.000 A 
ATOM     11  C   UNL     1      12.564  -8.417   3.578  0.00  0.00    +0.000 A 
ATOM     12  C   UNL     1      12.007  -9.602   3.097  0.00  0.00    +0.000 A 
ATOM     13  C   UNL     1      10.866  -9.528   2.306  0.00  0.00    +0.000 A 
ATOM     14  C   UNL     1      10.283  -8.294   2.009  0.00  0.00    +0.000 A 
BRANCH  12  15
ATOM     15  O   UNL     1      12.635 -10.763   3.457  0.00  0.00    +0.000 OA
ATOM     16  C   UNL     1      11.980 -11.971   3.071  0.00  0.00    +0.000 C 
ENDBRANCH  12  15
ENDBRANCH   2   9
BRANCH   1  17
ATOM     17  C   UNL     1       8.388  -4.188   1.409  0.00  0.00    +0.000 C 
ATOM     18  O   UNL     1       9.062  -3.327   0.863  0.00  0.00    +0.000 OA
BRANCH  17  19
ATOM     19  O   UNL     1       7.044  -4.025   1.557  0.00  0.00    +0.000 OA
BRANCH  19  20
ATOM     20  C   UNL     1       6.595  -2.740   1.054  0.00  0.00    +0.000 C 
BRANCH  20  21
ATOM     21  C   UNL     1       5.059  -2.695   1.008  0.00  0.00    +0.000 C 
BRANCH  21  22
ATOM     22  C   UNL     1       4.564  -3.822   0.067  0.00  0.00    +0.000 C 
ATOM     23  C   UNL     1       3.063  -4.058   0.037  0.00  0.00    +0.000 C 
ENDBRANCH  21  22
BRANCH  21  24
ATOM     24  C   UNL     1       4.600  -1.280   0.578  0.00  0.00    +0.000 C 
BRANCH  24  25
ATOM     25  C   UNL     1       3.090  -1.113   0.622  0.00  0.00    +0.000 C 
BRANCH  25  27
ATOM     26  C   UNL     1       1.031   0.118   0.105  0.00  0.00    +0.000 C 
ATOM     27  C   UNL     1       2.554   0.212   0.144  0.00  0.00    +0.000 C 
ENDBRANCH  25  27
ENDBRANCH  24  25
ENDBRANCH  21  24
ENDBRANCH  20  21
ENDBRANCH  19  20
ENDBRANCH  17  19
ENDBRANCH   1  17
BRANCH   1  28
ATOM     28  C   UNL     1       7.939  -6.458   2.363  0.00  0.00    +0.000 C 
ATOM     29  N   UNL     1       7.204  -7.300   2.656  0.00  0.00    +0.000 NA
ENDBRANCH   1  28
TORSDOF 12
