REMARK  Name = Etidronic acid
REMARK  8 active torsions:
REMARK  status: ('A' for Active; 'I' for Inactive)
REMARK    1  A    between atoms: C_1  and  C_2
REMARK    2  A    between atoms: C_2  and  O_3
REMARK    3  A    between atoms: C_2  and  P_4
REMARK    4  A    between atoms: C_2  and  P_8
REMARK    5  A    between atoms: P_4  and  O_5
REMARK    6  A    between atoms: P_4  and  O_6
REMARK    7  A    between atoms: P_8  and  O_9
REMARK    8  A    between atoms: P_8  and  O_10
REMARK                            x       y       z     vdW  Elec       q    Type
REMARK                         _______ _______ _______ _____ _____    ______ ____
ROOT
ATOM      1  C   UNL     1       1.002  -0.093   0.133  0.00  0.00    +0.000 C 
ATOM      2  C   UNL     1       2.529  -0.030   0.095  0.00  0.00    +0.000 C 
ENDROOT
BRANCH   2   3
ATOM      3  O   UNL     1       3.064  -1.117   0.917  0.00  0.00    +0.000 OA
ATOM      4  H   UNL     1       2.403  -1.819   1.033  0.00  0.00    +0.000 HD
ENDBRANCH   2   3
BRANCH   2   5
ATOM      5  P   UNL     1       3.139  -0.176  -1.624  0.00  0.00    +0.000 P 
ATOM      6  O   UNL     1       3.655  -0.300  -3.079  0.00  0.00    +0.000 OA
BRANCH   5   7
ATOM      7  O   UNL     1       4.685   0.017  -1.109  0.00  0.00    +0.000 OA
ATOM      8  H   UNL     1       4.910   0.986  -1.207  0.00  0.00    +0.000 HD
ENDBRANCH   5   7
BRANCH   5   9
ATOM      9  O   UNL     1       3.059  -1.833  -1.497  0.00  0.00    +0.000 OA
ATOM     10  H   UNL     1       3.033  -2.262  -0.656  0.00  0.00    +0.000 HD
ENDBRANCH   5   9
ENDBRANCH   2   5
BRANCH   2  11
ATOM     11  P   UNL     1       3.139   1.531   0.828  0.00  0.00    +0.000 P 
ATOM     12  O   UNL     1       3.655   2.853   1.448  0.00  0.00    +0.000 OA
BRANCH  11  13
ATOM     13  O   UNL     1       4.686   0.993   0.829  0.00  0.00    +0.000 OA
ATOM     14  H   UNL     1       4.863   0.099   0.444  0.00  0.00    +0.000 HD
ENDBRANCH  11  13
BRANCH  11  15
ATOM     15  O   UNL     1       2.943   2.169  -0.678  0.00  0.00    +0.000 OA
ATOM     16  H   UNL     1       2.069   2.603  -0.797  0.00  0.00    +0.000 HD
ENDBRANCH  11  15
ENDBRANCH   2  11
TORSDOF 7
