REMARK  Name = Etidocaine
REMARK  12 active torsions:
REMARK  status: ('A' for Active; 'I' for Inactive)
REMARK    1  A    between atoms: C_1  and  C_2
REMARK    2  A    between atoms: C_2  and  C_3
REMARK    3  A    between atoms: C_3  and  N_4
REMARK    4  A    between atoms: N_4  and  C_5
REMARK    5  A    between atoms: N_4  and  C_7
REMARK    6  A    between atoms: C_5  and  C_6
REMARK    7  A    between atoms: C_7  and  C_8
REMARK    8  A    between atoms: C_7  and  C_10
REMARK    9  A    between atoms: C_8  and  C_9
REMARK   10  A    between atoms: N_12  and  C_13
REMARK   11  A    between atoms: C_14  and  C_15
REMARK   12  A    between atoms: C_19  and  C_20
REMARK                            x       y       z     vdW  Elec       q    Type
REMARK                         _______ _______ _______ _____ _____    ______ ____
ROOT
ATOM      1  C   UNL     1       6.621   2.579   0.942  0.00  0.00    +0.000 C 
ATOM      2  O   UNL     1       7.239   1.523   0.906  0.00  0.00    +0.000 OA
ATOM      3  N   UNL     1       7.278   3.814   1.119  0.00  0.00    +0.000 N 
ATOM      4  H   UNL     1       6.789   4.554   1.600  0.00  0.00    +0.000 HD
ENDROOT
BRANCH   3   5
ATOM      5  C   UNL     1       8.708   3.867   1.124  0.00  0.00    +0.000 A 
ATOM      6  C   UNL     1       9.437   3.329   0.038  0.00  0.00    +0.000 A 
ATOM      7  C   UNL     1       8.791   2.782  -1.207  0.00  0.00    +0.000 C 
ATOM      8  C   UNL     1      10.843   3.319   0.073  0.00  0.00    +0.000 A 
ATOM      9  C   UNL     1      11.534   3.855   1.152  0.00  0.00    +0.000 A 
ATOM     10  C   UNL     1      10.825   4.426   2.203  0.00  0.00    +0.000 A 
ATOM     11  C   UNL     1       9.414   4.459   2.200  0.00  0.00    +0.000 A 
ATOM     12  C   UNL     1       8.737   5.051   3.405  0.00  0.00    +0.000 C 
ENDBRANCH   3   5
BRANCH   1  13
ATOM     13  C   UNL     1       5.038   2.625   0.802  0.00  0.00    +0.000 C 
BRANCH  13  14
ATOM     14  C   UNL     1       4.512   3.003   2.224  0.00  0.00    +0.000 C 
ATOM     15  C   UNL     1       3.017   3.250   2.425  0.00  0.00    +0.000 C 
ENDBRANCH  13  14
BRANCH  13  16
ATOM     16  N   UNL     1       4.533   1.302   0.225  0.00  0.00    +0.000 NA
BRANCH  16  17
ATOM     17  C   UNL     1       5.104   1.043  -1.117  0.00  0.00    +0.000 C 
ATOM     18  C   UNL     1       4.868  -0.364  -1.660  0.00  0.00    +0.000 C 
ENDBRANCH  16  17
BRANCH  16  19
ATOM     19  C   UNL     1       3.066   1.217   0.201  0.00  0.00    +0.000 C 
BRANCH  19  21
ATOM     20  C   UNL     1       0.876  -0.023   0.032  0.00  0.00    +0.000 C 
ATOM     21  C   UNL     1       2.382  -0.116  -0.089  0.00  0.00    +0.000 C 
ENDBRANCH  19  21
ENDBRANCH  16  19
ENDBRANCH  13  16
ENDBRANCH   1  13
TORSDOF 7
