REMARK  Name = Etilefrine
REMARK  7 active torsions:
REMARK  status: ('A' for Active; 'I' for Inactive)
REMARK    1  A    between atoms: C_1  and  C_2
REMARK    2  A    between atoms: C_2  and  N_3
REMARK    3  A    between atoms: N_3  and  C_4
REMARK    4  A    between atoms: C_4  and  C_5
REMARK    5  A    between atoms: C_5  and  O_6
REMARK    6  A    between atoms: C_5  and  C_7
REMARK    7  A    between atoms: C_11  and  O_12
REMARK                            x       y       z     vdW  Elec       q    Type
REMARK                         _______ _______ _______ _____ _____    ______ ____
ROOT
ATOM      1  C   UNL     1       5.077  -1.598  -2.258  0.00  0.00    +0.000 C 
ENDROOT
BRANCH   1   2
ATOM      2  C   UNL     1       6.596  -1.603  -2.263  0.00  0.00    +0.000 A 
ATOM      3  C   UNL     1       7.321  -1.608  -3.464  0.00  0.00    +0.000 A 
ATOM      4  C   UNL     1       8.718  -1.608  -3.455  0.00  0.00    +0.000 A 
ATOM      5  C   UNL     1       9.418  -1.610  -2.247  0.00  0.00    +0.000 A 
ATOM      6  C   UNL     1       8.706  -1.628  -1.055  0.00  0.00    +0.000 A 
ATOM      7  C   UNL     1       7.321  -1.645  -1.059  0.00  0.00    +0.000 A 
BRANCH   6   8
ATOM      8  O   UNL     1       9.323  -1.624   0.161  0.00  0.00    +0.000 OA
ATOM      9  H   UNL     1      10.282  -1.590   0.026  0.00  0.00    +0.000 HD
ENDBRANCH   6   8
ENDBRANCH   1   2
BRANCH   1  10
ATOM     10  O   UNL     1       4.573  -1.027  -3.478  0.00  0.00    +0.000 OA
ATOM     11  H   UNL     1       4.950  -0.133  -3.540  0.00  0.00    +0.000 HD
ENDBRANCH   1  10
BRANCH   1  12
ATOM     12  C   UNL     1       4.506  -0.779  -1.076  0.00  0.00    +0.000 C 
BRANCH  12  13
ATOM     13  N   UNL     1       3.042  -0.758  -1.068  0.00  0.00    +0.000 NA
ATOM     14  H   UNL     1       2.710  -0.396  -1.964  0.00  0.00    +0.000 HD
BRANCH  13  16
ATOM     15  C   UNL     1       1.047   0.035   0.051  0.00  0.00    +0.000 C 
ATOM     16  C   UNL     1       2.562   0.045   0.048  0.00  0.00    +0.000 C 
ENDBRANCH  13  16
ENDBRANCH  12  13
ENDBRANCH   1  12
TORSDOF 6
