REMARK  Name = Etofamide
REMARK  11 active torsions:
REMARK  status: ('A' for Active; 'I' for Inactive)
REMARK    1  A    between atoms: C_1  and  C_2
REMARK    2  A    between atoms: C_2  and  O_3
REMARK    3  A    between atoms: O_3  and  C_4
REMARK    4  A    between atoms: C_4  and  C_5
REMARK    5  A    between atoms: C_5  and  N_6
REMARK    6  A    between atoms: N_6  and  C_7
REMARK    7  A    between atoms: C_7  and  C_8
REMARK    8  A    between atoms: C_11  and  O_12
REMARK    9  A    between atoms: O_12  and  C_13
REMARK   10  A    between atoms: C_16  and  N_19
REMARK   11  A    between atoms: C_24  and  C_26
REMARK                            x       y       z     vdW  Elec       q    Type
REMARK                         _______ _______ _______ _____ _____    ______ ____
ROOT
ATOM      1  C   UNL     1       6.535   0.193  -0.084  0.00  0.00    +0.000 A 
ATOM      2  C   UNL     1       5.707   0.629  -1.128  0.00  0.00    +0.000 A 
ATOM      3  C   UNL     1       4.796  -0.264  -1.707  0.00  0.00    +0.000 A 
ATOM      4  C   UNL     1       4.824  -1.618  -1.380  0.00  0.00    +0.000 A 
ATOM      5  C   UNL     1       5.832  -2.080  -0.537  0.00  0.00    +0.000 A 
ATOM      6  C   UNL     1       6.681  -1.183   0.108  0.00  0.00    +0.000 A 
ENDROOT
BRANCH   1   7
ATOM      7  C   UNL     1       7.217   1.148   0.863  0.00  0.00    +0.000 C 
BRANCH   7   8
ATOM      8  N   UNL     1       6.464   2.078   1.765  0.00  0.00    +0.000 N 
ATOM      9  C   UNL     1       7.159   3.045   2.545  0.00  0.00    +0.000 C 
ATOM     10  O   UNL     1       6.509   3.822   3.255  0.00  0.00    +0.000 OA
BRANCH   9  11
ATOM     11  C   UNL     1       8.709   3.055   2.569  0.00  0.00    +0.000 C 
ATOM     12 CL   UNL     1       9.405   3.521   0.999  0.00  0.00    +0.000 Cl
ATOM     13 CL   UNL     1       9.321   4.238   3.768  0.00  0.00    +0.000 Cl
ENDBRANCH   9  11
BRANCH   8  14
ATOM     14  C   UNL     1       4.965   2.106   1.973  0.00  0.00    +0.000 C 
BRANCH  14  15
ATOM     15  C   UNL     1       4.129   1.100   1.209  0.00  0.00    +0.000 C 
BRANCH  15  16
ATOM     16  O   UNL     1       2.710   0.990   1.319  0.00  0.00    +0.000 OA
BRANCH  16  18
ATOM     17  C   UNL     1       0.814  -0.024   0.129  0.00  0.00    +0.000 C 
ATOM     18  C   UNL     1       2.302   0.089   0.260  0.00  0.00    +0.000 C 
ENDBRANCH  16  18
ENDBRANCH  15  16
ENDBRANCH  14  15
ENDBRANCH   8  14
ENDBRANCH   7   8
ENDBRANCH   1   7
BRANCH   4  19
ATOM     19  O   UNL     1       3.791  -2.376  -1.887  0.00  0.00    +0.000 OA
BRANCH  19  20
ATOM     20  C   UNL     1       3.955  -3.736  -1.929  0.00  0.00    +0.000 A 
ATOM     21  C   UNL     1       4.103  -4.327  -3.183  0.00  0.00    +0.000 A 
ATOM     22  C   UNL     1       4.253  -5.711  -3.279  0.00  0.00    +0.000 A 
ATOM     23  C   UNL     1       4.335  -6.478  -2.107  0.00  0.00    +0.000 A 
ATOM     24  C   UNL     1       4.163  -5.886  -0.849  0.00  0.00    +0.000 A 
ATOM     25  C   UNL     1       3.924  -4.515  -0.768  0.00  0.00    +0.000 A 
BRANCH  23  26
ATOM     26  N   UNL     1       4.660  -7.906  -2.204  0.00  0.00    +0.000 N 
ATOM     27  O   UNL     1       4.805  -8.392  -3.328  0.00  0.00    +0.000 OA
ATOM     28  O   UNL     1       4.794  -8.536  -1.138  0.00  0.00    +0.000 OA
ENDBRANCH  23  26
ENDBRANCH  19  20
ENDBRANCH   4  19
TORSDOF 10
