REMARK  Name = Etomidate
REMARK  7 active torsions:
REMARK  status: ('A' for Active; 'I' for Inactive)
REMARK    1  A    between atoms: C_1  and  C_2
REMARK    2  A    between atoms: C_2  and  O_3
REMARK    3  A    between atoms: O_3  and  C_4
REMARK    4  A    between atoms: C_4  and  C_6
REMARK    5  A    between atoms: N_10  and  C_11
REMARK    6  A    between atoms: C_11  and  C_12
REMARK    7  A    between atoms: C_11  and  C_13
REMARK                            x       y       z     vdW  Elec       q    Type
REMARK                         _______ _______ _______ _____ _____    ______ ____
ROOT
ATOM      1  C   UNL     1       8.422   2.643  -3.195  0.00  0.00    +0.000 A 
ATOM      2  C   UNL     1       9.778   2.383  -3.276  0.00  0.00    +0.000 A 
ATOM      3  N   UNL     1      10.035   1.084  -3.613  0.00  0.00    +0.000 NA
ATOM      4  C   UNL     1       8.855   0.538  -3.766  0.00  0.00    +0.000 A 
ATOM      5  N   UNL     1       7.835   1.408  -3.429  0.00  0.00    +0.000 N 
ENDROOT
BRANCH   1   6
ATOM      6  C   UNL     1       7.814   3.907  -2.872  0.00  0.00    +0.000 C 
ATOM      7  O   UNL     1       7.046   4.123  -1.936  0.00  0.00    +0.000 OA
BRANCH   6   8
ATOM      8  O   UNL     1       8.167   4.853  -3.787  0.00  0.00    +0.000 OA
BRANCH   8  10
ATOM      9  C   UNL     1       8.070   7.131  -4.545  0.00  0.00    +0.000 C 
ATOM     10  C   UNL     1       7.485   6.104  -3.598  0.00  0.00    +0.000 C 
ENDBRANCH   8  10
ENDBRANCH   6   8
ENDBRANCH   1   6
BRANCH   5  11
ATOM     11  C   UNL     1       6.417   1.005  -3.386  0.00  0.00    +0.000 C 
ATOM     12  C   UNL     1       5.463   2.164  -3.128  0.00  0.00    +0.000 C 
BRANCH  11  13
ATOM     13  C   UNL     1       6.134  -0.141  -2.409  0.00  0.00    +0.000 A 
ATOM     14  C   UNL     1       7.142  -0.822  -1.707  0.00  0.00    +0.000 A 
ATOM     15  C   UNL     1       6.882  -2.026  -1.064  0.00  0.00    +0.000 A 
ATOM     16  C   UNL     1       5.576  -2.480  -0.952  0.00  0.00    +0.000 A 
ATOM     17  C   UNL     1       4.538  -1.760  -1.532  0.00  0.00    +0.000 A 
ATOM     18  C   UNL     1       4.817  -0.615  -2.274  0.00  0.00    +0.000 A 
ENDBRANCH  11  13
ENDBRANCH   5  11
TORSDOF 5
