REMARK  Name = Etonogestrel
REMARK  4 active torsions:
REMARK  status: ('A' for Active; 'I' for Inactive)
REMARK    1  A    between atoms: C_5  and  O_6
REMARK    2  A    between atoms: C_5  and  C_7
REMARK    3  A    between atoms: C_9  and  C_10
REMARK    4  A    between atoms: C_10  and  C_11
REMARK                            x       y       z     vdW  Elec       q    Type
REMARK                         _______ _______ _______ _____ _____    ______ ____
ROOT
ATOM      1  C   UNL     1       1.788   0.069  -0.173  0.00  0.00    +0.000 C 
ATOM      2  C   UNL     1       2.242   0.203  -1.505  0.00  0.00    +0.000 C 
ATOM      3  C   UNL     1       3.232  -0.310  -0.523  0.00  0.00    +0.000 C 
ATOM      4  C   UNL     1       2.468  -0.851   1.344  0.00  0.00    +0.000 C 
ATOM      5  C   UNL     1       2.691  -1.577   0.215  0.00  0.00    +0.000 C 
ATOM      6  C   UNL     1       4.483  -1.569   0.752  0.00  0.00    +0.000 C 
ATOM      7  C   UNL     1       4.688  -0.218   1.634  0.00  0.00    +0.000 C 
ATOM      8  C   UNL     1       5.138  -0.354   2.895  0.00  0.00    +0.000 C 
ATOM      9  C   UNL     1       4.036   1.195   1.137  0.00  0.00    +0.000 C 
ATOM     10  C   UNL     1       4.460   2.356   1.931  0.00  0.00    +0.000 C 
ATOM     11  C   UNL     1       5.844   2.159   2.057  0.00  0.00    +0.000 C 
ATOM     12  C   UNL     1       7.094   1.578   2.289  0.00  0.00    +0.000 C 
ATOM     13  C   UNL     1       7.529   2.923   1.470  0.00  0.00    +0.000 C 
ATOM     14  O   UNL     1       8.699   3.012   1.248  0.00  0.00    +0.000 OA
ATOM     15  C   UNL     1       6.059   3.999   0.829  0.00  0.00    +0.000 C 
ATOM     16  C   UNL     1       4.658   3.615   1.039  0.00  0.00    +0.000 C 
ATOM     17  C   UNL     1       3.099   3.924   0.738  0.00  0.00    +0.000 C 
ATOM     18  C   UNL     1       2.258   2.738   0.131  0.00  0.00    +0.000 C 
ATOM     19  C   UNL     1       2.492   1.400   0.824  0.00  0.00    +0.000 C 
ENDROOT
BRANCH   4  20
ATOM     20  O   UNL     1       2.750  -1.977   2.265  0.00  0.00    +0.000 OA
ATOM     21  H   UNL     1       3.572  -1.974   2.772  0.00  0.00    +0.000 HD
ENDBRANCH   4  20
BRANCH   4  22
ATOM     22  C   UNL     1       0.912  -0.883   1.740  0.00  0.00    +0.000 C 
ATOM     23  C   UNL     1      -0.218  -1.042   2.034  0.00  0.00    +0.000 C 
ENDBRANCH   4  22
BRANCH   5  24
ATOM     24  C   UNL     1       2.071  -2.851  -0.165  0.00  0.00    +0.000 C 
ATOM     25  C   UNL     1       2.578  -3.012  -1.568  0.00  0.00    +0.000 C 
ENDBRANCH   5  24
TORSDOF 3
