REMARK  Name = Etoposide
REMARK  11 active torsions:
REMARK  status: ('A' for Active; 'I' for Inactive)
REMARK    1  A    between atoms: C_9  and  C_10
REMARK    2  A    between atoms: C_12  and  O_13
REMARK    3  A    between atoms: O_13  and  C_14
REMARK    4  A    between atoms: C_15  and  O_16
REMARK    5  A    between atoms: C_17  and  O_18
REMARK    6  A    between atoms: O_18  and  C_19
REMARK    7  A    between atoms: C_30  and  O_31
REMARK    8  A    between atoms: O_31  and  C_32
REMARK    9  A    between atoms: C_38  and  C_39
REMARK   10  A    between atoms: C_43  and  O_44
REMARK   11  A    between atoms: C_45  and  O_46
REMARK                            x       y       z     vdW  Elec       q    Type
REMARK                         _______ _______ _______ _____ _____    ______ ____
ROOT
ATOM      1  C   UNL     1       0.201  -5.105  -3.108  0.00  0.00    +0.000 C 
ATOM      2  C   UNL     1       0.989  -5.566  -4.304  0.00  0.00    +0.000 C 
ATOM      3  O   UNL     1       0.415  -6.831  -4.655  0.00  0.00    +0.000 OA
ATOM      4  C   UNL     1      -0.220  -7.381  -3.573  0.00  0.00    +0.000 C 
ATOM      5  O   UNL     1      -0.550  -8.545  -3.507  0.00  0.00    +0.000 OA
ATOM      6  C   UNL     1      -0.214  -6.401  -2.431  0.00  0.00    +0.000 C 
ATOM      7  C   UNL     1      -1.297  -6.172  -1.392  0.00  0.00    +0.000 C 
ATOM      8  C   UNL     1      -0.971  -4.918  -0.527  0.00  0.00    +0.000 A 
ATOM      9  C   UNL     1      -1.701  -4.747   0.684  0.00  0.00    +0.000 A 
ATOM     10  C   UNL     1      -1.369  -3.698   1.517  0.00  0.00    +0.000 A 
ATOM     11  C   UNL     1      -0.454  -2.750   1.138  0.00  0.00    +0.000 A 
ATOM     12  O   UNL     1      -0.208  -1.854   2.134  0.00  0.00    +0.000 OA
ATOM     13  C   UNL     1      -0.918  -2.464   3.234  0.00  0.00    +0.000 C 
ATOM     14  O   UNL     1      -1.728  -3.587   2.826  0.00  0.00    +0.000 OA
ATOM     15  C   UNL     1       0.201  -2.809  -0.080  0.00  0.00    +0.000 A 
ATOM     16  C   UNL     1      -0.018  -3.921  -0.924  0.00  0.00    +0.000 A 
ATOM     17  C   UNL     1       0.892  -4.122  -2.155  0.00  0.00    +0.000 C 
ENDROOT
BRANCH   7  18
ATOM     18  C   UNL     1      -2.650  -6.046  -2.018  0.00  0.00    +0.000 A 
ATOM     19  C   UNL     1      -3.187  -7.057  -2.800  0.00  0.00    +0.000 A 
ATOM     20  C   UNL     1      -4.404  -6.865  -3.431  0.00  0.00    +0.000 A 
ATOM     21  C   UNL     1      -5.119  -5.671  -3.191  0.00  0.00    +0.000 A 
ATOM     22  C   UNL     1      -4.628  -4.675  -2.353  0.00  0.00    +0.000 A 
ATOM     23  C   UNL     1      -3.388  -4.882  -1.813  0.00  0.00    +0.000 A 
BRANCH  20  24
ATOM     24  O   UNL     1      -4.965  -7.781  -4.286  0.00  0.00    +0.000 OA
ATOM     25  C   UNL     1      -4.200  -8.969  -4.527  0.00  0.00    +0.000 C 
ENDBRANCH  20  24
BRANCH  21  26
ATOM     26  O   UNL     1      -6.328  -5.478  -3.799  0.00  0.00    +0.000 OA
ATOM     27  H   UNL     1      -6.467  -6.276  -4.338  0.00  0.00    +0.000 HD
ENDBRANCH  21  26
BRANCH  22  28
ATOM     28  O   UNL     1      -5.342  -3.536  -2.098  0.00  0.00    +0.000 OA
ATOM     29  C   UNL     1      -4.749  -2.597  -1.187  0.00  0.00    +0.000 C 
ENDBRANCH  22  28
ENDBRANCH   7  18
BRANCH  17  30
ATOM     30  O   UNL     1       2.293  -4.469  -1.854  0.00  0.00    +0.000 OA
BRANCH  30  31
ATOM     31  C   UNL     1       2.426  -5.672  -1.097  0.00  0.00    +0.000 C 
ATOM     32  O   UNL     1       1.729  -5.451   0.100  0.00  0.00    +0.000 OA
ATOM     33  C   UNL     1       1.368  -6.570   0.859  0.00  0.00    +0.000 C 
ATOM     34  C   UNL     1       0.582  -6.129   2.074  0.00  0.00    +0.000 C 
ATOM     35  O   UNL     1       0.320  -7.189   2.946  0.00  0.00    +0.000 OA
ATOM     36  C   UNL     1       1.541  -7.734   3.369  0.00  0.00    +0.000 C 
ATOM     37  C   UNL     1       1.131  -8.824   4.316  0.00  0.00    +0.000 C 
ATOM     38  O   UNL     1       2.287  -8.259   2.261  0.00  0.00    +0.000 OA
ATOM     39  C   UNL     1       2.629  -7.199   1.365  0.00  0.00    +0.000 C 
ATOM     40  C   UNL     1       3.443  -7.610   0.128  0.00  0.00    +0.000 C 
ATOM     41  C   UNL     1       3.765  -6.354  -0.779  0.00  0.00    +0.000 C 
BRANCH  40  42
ATOM     42  O   UNL     1       4.649  -8.244   0.540  0.00  0.00    +0.000 OA
ATOM     43  H   UNL     1       5.116  -7.619   1.119  0.00  0.00    +0.000 HD
ENDBRANCH  40  42
BRANCH  41  44
ATOM     44  O   UNL     1       4.417  -6.781  -1.986  0.00  0.00    +0.000 OA
ATOM     45  H   UNL     1       3.895  -7.495  -2.396  0.00  0.00    +0.000 HD
ENDBRANCH  41  44
ENDBRANCH  30  31
ENDBRANCH  17  30
TORSDOF 8
