REMARK  Name = Etoricoxib
REMARK  5 active torsions:
REMARK  status: ('A' for Active; 'I' for Inactive)
REMARK    1  A    between atoms: C_1  and  C_2
REMARK    2  A    between atoms: C_5  and  C_8
REMARK    3  A    between atoms: C_9  and  C_15
REMARK    4  A    between atoms: C_18  and  S_21
REMARK    5  A    between atoms: S_21  and  C_22
REMARK                            x       y       z     vdW  Elec       q    Type
REMARK                         _______ _______ _______ _____ _____    ______ ____
ROOT
ATOM      1  C   UNL     1      -3.297   0.191  -0.003  0.00  0.00    +0.000 A 
ATOM      2  C   UNL     1      -4.030  -0.363   1.077  0.00  0.00    +0.000 A 
ATOM      3  C   UNL     1      -5.430  -0.298   1.008  0.00  0.00    +0.000 A 
ATOM      4  C   UNL     1      -6.041   0.325  -0.076  0.00  0.00    +0.000 A 
ATOM      5 CL   UNL     1      -7.752   0.405  -0.188  0.00  0.00    +0.000 Cl
ATOM      6  C   UNL     1      -5.239   0.878  -1.061  0.00  0.00    +0.000 A 
ATOM      7  N   UNL     1      -3.885   0.829  -1.049  0.00  0.00    +0.000 NA
ENDROOT
BRANCH   1  12
ATOM      8  C   UNL     1       2.435  -0.094  -0.001  0.00  0.00    +0.000 C 
ATOM      9  C   UNL     1       0.937  -0.053  -0.009  0.00  0.00    +0.000 A 
ATOM     10  N   UNL     1       0.346   1.165  -0.013  0.00  0.00    +0.000 NA
ATOM     11  C   UNL     1      -1.011   1.203  -0.063  0.00  0.00    +0.000 A 
ATOM     12  C   UNL     1      -1.831   0.080  -0.092  0.00  0.00    +0.000 A 
ATOM     13  C   UNL     1      -1.180  -1.163  -0.085  0.00  0.00    +0.000 A 
ATOM     14  C   UNL     1       0.209  -1.236  -0.029  0.00  0.00    +0.000 A 
ENDBRANCH   1  12
BRANCH   2  15
ATOM     15  C   UNL     1      -3.341  -1.017   2.208  0.00  0.00    +0.000 A 
ATOM     16  C   UNL     1      -2.323  -0.339   2.907  0.00  0.00    +0.000 A 
ATOM     17  C   UNL     1      -1.448  -1.021   3.753  0.00  0.00    +0.000 A 
ATOM     18  C   UNL     1      -1.667  -2.372   4.014  0.00  0.00    +0.000 A 
ATOM     19  C   UNL     1      -2.719  -3.051   3.391  0.00  0.00    +0.000 A 
ATOM     20  C   UNL     1      -3.547  -2.376   2.487  0.00  0.00    +0.000 A 
BRANCH  18  21
ATOM     21  S   UNL     1      -0.727  -3.171   5.296  0.00  0.00    +0.000 S 
ATOM     22  C   UNL     1       0.964  -3.154   4.768  0.00  0.00    +0.000 C 
ATOM     23  O   UNL     1      -0.835  -2.317   6.468  0.00  0.00    +0.000 OA
ATOM     24  O   UNL     1      -1.150  -4.555   5.346  0.00  0.00    +0.000 OA
ENDBRANCH  18  21
ENDBRANCH   2  15
TORSDOF 3
