REMARK  Name = Etravirine
REMARK  7 active torsions:
REMARK  status: ('A' for Active; 'I' for Inactive)
REMARK    1  A    between atoms: C_1  and  C_2
REMARK    2  A    between atoms: C_4  and  C_27
REMARK    3  A    between atoms: C_6  and  C_7
REMARK    4  A    between atoms: C_8  and  O_9
REMARK    5  A    between atoms: O_9  and  C_10
REMARK    6  A    between atoms: N_17  and  C_18
REMARK    7  A    between atoms: C_21  and  C_24
REMARK                            x       y       z     vdW  Elec       q    Type
REMARK                         _______ _______ _______ _____ _____    ______ ____
ROOT
ATOM      1  C   UNL     1       4.132   1.095  -0.020  0.00  0.00    +0.000 A 
ATOM      2  C   UNL     1       4.875   1.365  -1.147  0.00  0.00    +0.000 A 
ATOM      3 BR   UNL     1       4.975   0.157  -2.603  0.00  0.00    +0.000 Br
ATOM      4  C   UNL     1       5.564   2.577  -1.147  0.00  0.00    +0.000 A 
ATOM      5  N   UNL     1       6.327   2.946  -2.249  0.00  0.00    +0.000 N 
ATOM      6  N   UNL     1       5.465   3.474  -0.134  0.00  0.00    +0.000 NA
ATOM      7  C   UNL     1       4.758   3.114   0.957  0.00  0.00    +0.000 A 
ATOM      8  N   UNL     1       4.495   4.092   1.941  0.00  0.00    +0.000 N 
ATOM      9  N   UNL     1       4.168   1.900   1.067  0.00  0.00    +0.000 NA
ATOM     10  H   UNL     1       6.523   2.254  -2.963  0.00  0.00    +0.000 HD
ATOM     11  H   UNL     1       6.886   3.786  -2.205  0.00  0.00    +0.000 HD
ATOM     12  H   UNL     1       4.904   4.995   1.744  0.00  0.00    +0.000 HD
ENDROOT
BRANCH   8  13
ATOM     13  C   UNL     1       3.673   3.981   3.080  0.00  0.00    +0.000 A 
ATOM     14  C   UNL     1       2.628   4.885   3.341  0.00  0.00    +0.000 A 
ATOM     15  C   UNL     1       1.740   4.676   4.415  0.00  0.00    +0.000 A 
ATOM     16  C   UNL     1       1.896   3.573   5.260  0.00  0.00    +0.000 A 
ATOM     17  C   UNL     1       2.948   2.687   5.027  0.00  0.00    +0.000 A 
ATOM     18  C   UNL     1       3.816   2.891   3.946  0.00  0.00    +0.000 A 
BRANCH  16  19
ATOM     19  C   UNL     1       0.985   3.355   6.345  0.00  0.00    +0.000 C 
ATOM     20  N   UNL     1       0.240   3.189   7.226  0.00  0.00    +0.000 NA
ENDBRANCH  16  19
ENDBRANCH   8  13
BRANCH   1  21
ATOM     21  O   UNL     1       3.313  -0.042   0.022  0.00  0.00    +0.000 OA
BRANCH  21  29
ATOM     22  C   UNL     1       1.723   2.630  -0.065  0.00  0.00    +0.000 C 
ATOM     23  C   UNL     1       1.157   1.249  -0.029  0.00  0.00    +0.000 A 
ATOM     24  C   UNL     1      -0.253   1.211   0.007  0.00  0.00    +0.000 A 
ATOM     25  C   UNL     1      -0.947   0.013   0.024  0.00  0.00    +0.000 A 
ATOM     26  C   UNL     1      -0.228  -1.174   0.023  0.00  0.00    +0.000 A 
ATOM     27  C   UNL     1       1.190  -1.176   0.012  0.00  0.00    +0.000 A 
ATOM     28  C   UNL     1       1.840  -2.538  -0.017  0.00  0.00    +0.000 C 
ATOM     29  C   UNL     1       1.915   0.056   0.005  0.00  0.00    +0.000 A 
BRANCH  25  30
ATOM     30  C   UNL     1      -2.381   0.013   0.010  0.00  0.00    +0.000 C 
ATOM     31  N   UNL     1      -3.539   0.023  -0.021  0.00  0.00    +0.000 NA
ENDBRANCH  25  30
ENDBRANCH  21  29
ENDBRANCH   1  21
TORSDOF 5
