REMARK  Name = Eugenol
REMARK  5 active torsions:
REMARK  status: ('A' for Active; 'I' for Inactive)
REMARK    1  A    between atoms: C_1  and  O_2
REMARK    2  A    between atoms: O_2  and  C_3
REMARK    3  A    between atoms: C_4  and  O_5
REMARK    4  A    between atoms: C_8  and  C_9
REMARK    5  A    between atoms: C_9  and  C_10
REMARK                            x       y       z     vdW  Elec       q    Type
REMARK                         _______ _______ _______ _____ _____    ______ ____
ROOT
ATOM      1  C   UNL     1       3.094   0.993   0.012  0.00  0.00    +0.000 A 
ATOM      2  C   UNL     1       4.486   0.971  -0.002  0.00  0.00    +0.000 A 
ATOM      3  C   UNL     1       5.224   2.151  -0.025  0.00  0.00    +0.000 A 
ATOM      4  C   UNL     1       4.563   3.385  -0.028  0.00  0.00    +0.000 A 
ATOM      5  C   UNL     1       3.161   3.445  -0.000  0.00  0.00    +0.000 A 
ATOM      6  C   UNL     1       2.456   2.230   0.021  0.00  0.00    +0.000 A 
ENDROOT
BRANCH   1   8
ATOM      7  C   UNL     1       1.011  -0.149   0.004  0.00  0.00    +0.000 C 
ATOM      8  O   UNL     1       2.440  -0.215   0.019  0.00  0.00    +0.000 OA
ENDBRANCH   1   8
BRANCH   2   9
ATOM      9  O   UNL     1       5.162  -0.218   0.008  0.00  0.00    +0.000 OA
ATOM     10  H   UNL     1       4.468  -0.905   0.036  0.00  0.00    +0.000 HD
ENDBRANCH   2   9
BRANCH   5  11
ATOM     11  C   UNL     1       2.464   4.798   0.006  0.00  0.00    +0.000 C 
BRANCH  11  12
ATOM     12  C   UNL     1       0.954   4.781   0.039  0.00  0.00    +0.000 C 
ATOM     13  C   UNL     1       0.168   5.868   0.050  0.00  0.00    +0.000 C 
ENDBRANCH  11  12
ENDBRANCH   5  11
TORSDOF 4
