REMARK  Name = Exametazime
REMARK  16 active torsions:
REMARK  status: ('A' for Active; 'I' for Inactive)
REMARK    1  A    between atoms: C_1  and  C_2
REMARK    2  A    between atoms: C_2  and  N_3
REMARK    3  A    between atoms: C_2  and  C_16
REMARK    4  A    between atoms: N_3  and  C_4
REMARK    5  A    between atoms: C_4  and  C_5
REMARK    6  A    between atoms: C_5  and  C_6
REMARK    7  A    between atoms: C_5  and  C_7
REMARK    8  A    between atoms: C_5  and  C_8
REMARK    9  A    between atoms: C_8  and  N_9
REMARK   10  A    between atoms: N_9  and  C_10
REMARK   11  A    between atoms: C_10  and  C_11
REMARK   12  A    between atoms: C_10  and  C_12
REMARK   13  A    between atoms: C_12  and  C_13
REMARK   14  A    between atoms: N_14  and  O_15
REMARK   15  A    between atoms: C_16  and  C_17
REMARK   16  A    between atoms: N_18  and  O_19
REMARK                            x       y       z     vdW  Elec       q    Type
REMARK                         _______ _______ _______ _____ _____    ______ ____
ROOT
ATOM      1  C   UNL     1      -0.959   8.221  -1.274  0.00  0.00    +0.000 C 
ATOM      2  C   UNL     1      -1.456   8.630   0.131  0.00  0.00    +0.000 C 
ATOM      3  C   UNL     1      -1.470   6.822  -1.650  0.00  0.00    +0.000 C 
ENDROOT
BRANCH   1   4
ATOM      4  C   UNL     1      -1.448   9.262  -2.310  0.00  0.00    +0.000 C 
BRANCH   4   5
ATOM      5  N   UNL     1      -2.907   9.373  -2.346  0.00  0.00    +0.000 NA
ATOM      6  H   UNL     1      -3.323   8.473  -2.598  0.00  0.00    +0.000 HD
BRANCH   5   8
ATOM      7  C   UNL     1      -2.839  11.751  -2.984  0.00  0.00    +0.000 C 
ATOM      8  C   UNL     1      -3.393  10.369  -3.314  0.00  0.00    +0.000 C 
BRANCH   8   9
ATOM      9  C   UNL     1      -4.941  10.305  -3.299  0.00  0.00    +0.000 C 
ATOM     10  C   UNL     1      -5.749  11.540  -2.948  0.00  0.00    +0.000 C 
ATOM     11  N   UNL     1      -5.515   9.174  -3.616  0.00  0.00    +0.000 NA
BRANCH  11  12
ATOM     12  O   UNL     1      -6.914   9.288  -3.568  0.00  0.00    +0.000 OA
ATOM     13  H   UNL     1      -7.215   8.388  -3.790  0.00  0.00    +0.000 HD
ENDBRANCH  11  12
ENDBRANCH   8   9
ENDBRANCH   5   8
ENDBRANCH   4   5
ENDBRANCH   1   4
BRANCH   1  14
ATOM     14  C   UNL     1       0.591   8.253  -1.298  0.00  0.00    +0.000 C 
BRANCH  14  15
ATOM     15  N   UNL     1       1.172   7.336  -0.312  0.00  0.00    +0.000 NA
ATOM     16  H   UNL     1       0.855   6.393  -0.532  0.00  0.00    +0.000 HD
BRANCH  15  17
ATOM     17  C   UNL     1       2.646   7.352  -0.299  0.00  0.00    +0.000 C 
ATOM     18  C   UNL     1       3.082   6.062   0.396  0.00  0.00    +0.000 C 
BRANCH  17  19
ATOM     19  C   UNL     1       3.164   8.646   0.383  0.00  0.00    +0.000 C 
ATOM     20  C   UNL     1       3.980   8.558   1.656  0.00  0.00    +0.000 C 
ATOM     21  N   UNL     1       2.909   9.791  -0.179  0.00  0.00    +0.000 NA
BRANCH  21  22
ATOM     22  O   UNL     1       3.373  10.873   0.578  0.00  0.00    +0.000 OA
ATOM     23  H   UNL     1       2.984  11.635   0.111  0.00  0.00    +0.000 HD
ENDBRANCH  21  22
ENDBRANCH  17  19
ENDBRANCH  15  17
ENDBRANCH  14  15
ENDBRANCH   1  14
TORSDOF 10
