REMARK  Name = Exemestane
REMARK  2 active torsions:
REMARK  status: ('A' for Active; 'I' for Inactive)
REMARK    1  A    between atoms: C_7  and  C_8
REMARK    2  A    between atoms: C_24  and  C_25
REMARK                            x       y       z     vdW  Elec       q    Type
REMARK                         _______ _______ _______ _____ _____    ______ ____
ROOT
ATOM      1  C   UNL     1       1.838  -0.208  -0.272  0.00  0.00    +0.000 C 
ATOM      2  C   UNL     1       2.306  -0.076  -1.652  0.00  0.00    +0.000 C 
ATOM      3  C   UNL     1       3.598  -0.179  -0.929  0.00  0.00    +0.000 C 
ATOM      4  C   UNL     1       2.913  -0.763   0.782  0.00  0.00    +0.000 C 
ATOM      5  O   UNL     1       2.756  -0.768   2.007  0.00  0.00    +0.000 OA
ATOM      6  C   UNL     1       2.746  -1.822   0.068  0.00  0.00    +0.000 C 
ATOM      7  C   UNL     1       1.951  -3.008  -0.188  0.00  0.00    +0.000 C 
ATOM      8  C   UNL     1       4.462  -1.752   0.644  0.00  0.00    +0.000 C 
ATOM      9  C   UNL     1       4.990  -0.137   1.379  0.00  0.00    +0.000 C 
ATOM     10  C   UNL     1       4.290   1.333   0.843  0.00  0.00    +0.000 C 
ATOM     11  C   UNL     1       2.541   1.331   0.609  0.00  0.00    +0.000 C 
ATOM     12  C   UNL     1       2.083   2.591  -0.085  0.00  0.00    +0.000 C 
ATOM     13  C   UNL     1       2.667   3.811   0.564  0.00  0.00    +0.000 C 
ATOM     14  C   UNL     1       1.857   4.772   1.028  0.00  0.00    +0.000 C 
ATOM     15  C   UNL     1       4.101   3.871   0.822  0.00  0.00    +0.000 C 
ATOM     16  C   UNL     1       4.847   4.956   0.545  0.00  0.00    +0.000 C 
ATOM     17  C   UNL     1       6.237   4.813   1.021  0.00  0.00    +0.000 C 
ATOM     18  O   UNL     1       6.741   5.420   1.956  0.00  0.00    +0.000 OA
ATOM     19  C   UNL     1       6.978   3.698   0.296  0.00  0.00    +0.000 C 
ATOM     20  C   UNL     1       6.368   2.769   1.065  0.00  0.00    +0.000 C 
ATOM     21  C   UNL     1       4.809   2.653   1.466  0.00  0.00    +0.000 C 
ATOM     22  C   UNL     1       4.376   2.590   2.933  0.00  0.00    +0.000 C 
ENDROOT
TORSDOF 0
