REMARK  Name = Ezetimibe
REMARK  8 active torsions:
REMARK  status: ('A' for Active; 'I' for Inactive)
REMARK    1  A    between atoms: C_2  and  C_3
REMARK    2  A    between atoms: C_3  and  C_4
REMARK    3  A    between atoms: C_4  and  C_5
REMARK    4  A    between atoms: C_5  and  O_6
REMARK    5  A    between atoms: C_5  and  C_7
REMARK    6  A    between atoms: N_16  and  C_17
REMARK    7  A    between atoms: C_24  and  C_26
REMARK    8  A    between atoms: C_29  and  O_30
REMARK                            x       y       z     vdW  Elec       q    Type
REMARK                         _______ _______ _______ _____ _____    ______ ____
ROOT
ATOM      1  C   UNL     1      -1.465   2.811   1.085  0.00  0.00    +0.000 C 
ATOM      2  C   UNL     1      -1.743   3.978   0.105  0.00  0.00    +0.000 C 
ATOM      3  O   UNL     1      -1.100   4.591  -0.722  0.00  0.00    +0.000 OA
ATOM      4  N   UNL     1      -3.023   4.070   0.528  0.00  0.00    +0.000 N 
ATOM      5  C   UNL     1      -2.938   3.021   1.539  0.00  0.00    +0.000 C 
ENDROOT
BRANCH   4   6
ATOM      6  C   UNL     1      -4.078   4.889   0.142  0.00  0.00    +0.000 A 
ATOM      7  C   UNL     1      -4.744   5.686   1.082  0.00  0.00    +0.000 A 
ATOM      8  C   UNL     1      -5.782   6.535   0.692  0.00  0.00    +0.000 A 
ATOM      9  C   UNL     1      -6.186   6.553  -0.634  0.00  0.00    +0.000 A 
ATOM     10  F   UNL     1      -7.195   7.352  -1.005  0.00  0.00    +0.000 F 
ATOM     11  C   UNL     1      -5.557   5.749  -1.578  0.00  0.00    +0.000 A 
ATOM     12  C   UNL     1      -4.488   4.930  -1.194  0.00  0.00    +0.000 A 
ENDBRANCH   4   6
BRANCH   5  13
ATOM     13  C   UNL     1      -3.126   3.387   3.028  0.00  0.00    +0.000 A 
ATOM     14  C   UNL     1      -2.608   4.577   3.573  0.00  0.00    +0.000 A 
ATOM     15  C   UNL     1      -2.808   4.904   4.906  0.00  0.00    +0.000 A 
ATOM     16  C   UNL     1      -3.508   4.017   5.714  0.00  0.00    +0.000 A 
ATOM     17  C   UNL     1      -3.998   2.819   5.217  0.00  0.00    +0.000 A 
ATOM     18  C   UNL     1      -3.809   2.509   3.882  0.00  0.00    +0.000 A 
BRANCH  16  19
ATOM     19  O   UNL     1      -3.745   4.282   7.028  0.00  0.00    +0.000 OA
ATOM     20  H   UNL     1      -3.372   5.151   7.239  0.00  0.00    +0.000 HD
ENDBRANCH  16  19
ENDBRANCH   5  13
BRANCH   1  21
ATOM     21  C   UNL     1      -1.098   1.470   0.486  0.00  0.00    +0.000 C 
BRANCH  21  22
ATOM     22  C   UNL     1      -2.004   1.140  -0.683  0.00  0.00    +0.000 C 
BRANCH  22  23
ATOM     23  C   UNL     1      -1.545  -0.105  -1.425  0.00  0.00    +0.000 C 
BRANCH  23  24
ATOM     24  C   UNL     1      -2.074  -0.160  -2.833  0.00  0.00    +0.000 A 
ATOM     25  C   UNL     1      -2.300  -1.410  -3.419  0.00  0.00    +0.000 A 
ATOM     26  C   UNL     1      -2.759  -1.489  -4.731  0.00  0.00    +0.000 A 
ATOM     27  C   UNL     1      -3.002  -0.324  -5.451  0.00  0.00    +0.000 A 
ATOM     28  F   UNL     1      -3.448  -0.403  -6.709  0.00  0.00    +0.000 F 
ATOM     29  C   UNL     1      -2.779   0.923  -4.894  0.00  0.00    +0.000 A 
ATOM     30  C   UNL     1      -2.294   1.003  -3.598  0.00  0.00    +0.000 A 
ENDBRANCH  23  24
BRANCH  23  31
ATOM     31  O   UNL     1      -0.126  -0.171  -1.493  0.00  0.00    +0.000 OA
ATOM     32  H   UNL     1       0.179   0.639  -1.938  0.00  0.00    +0.000 HD
ENDBRANCH  23  31
ENDBRANCH  22  23
ENDBRANCH  21  22
ENDBRANCH   1  21
TORSDOF 8
