REMARK  Name = Ezogabine
REMARK  8 active torsions:
REMARK  status: ('A' for Active; 'I' for Inactive)
REMARK    1  A    between atoms: C_1  and  C_2
REMARK    2  A    between atoms: C_2  and  O_3
REMARK    3  A    between atoms: O_3  and  C_4
REMARK    4  A    between atoms: N_6  and  C_7
REMARK    5  A    between atoms: C_8  and  N_9
REMARK    6  A    between atoms: C_11  and  N_12
REMARK    7  A    between atoms: N_12  and  C_13
REMARK    8  A    between atoms: C_13  and  C_14
REMARK                            x       y       z     vdW  Elec       q    Type
REMARK                         _______ _______ _______ _____ _____    ______ ____
ROOT
ATOM      1  C   UNL     1       4.218  -3.295   2.298  0.00  0.00    +0.000 A 
ATOM      2  C   UNL     1       4.556  -4.174   3.347  0.00  0.00    +0.000 A 
ATOM      3  C   UNL     1       3.943  -5.451   3.373  0.00  0.00    +0.000 A 
ATOM      4  C   UNL     1       3.011  -5.858   2.400  0.00  0.00    +0.000 A 
ATOM      5  C   UNL     1       2.741  -4.973   1.363  0.00  0.00    +0.000 A 
ATOM      6  C   UNL     1       3.347  -3.732   1.301  0.00  0.00    +0.000 A 
ENDROOT
BRANCH   1   9
ATOM      7  C   UNL     1       4.422  -1.064   1.252  0.00  0.00    +0.000 C 
ATOM      8  O   UNL     1       5.238  -0.350   0.677  0.00  0.00    +0.000 OA
ATOM      9  N   UNL     1       4.791  -2.005   2.188  0.00  0.00    +0.000 N 
ATOM     10  H   UNL     1       5.679  -1.857   2.639  0.00  0.00    +0.000 HD
BRANCH   7  11
ATOM     11  O   UNL     1       3.070  -0.980   1.081  0.00  0.00    +0.000 OA
BRANCH  11  13
ATOM     12  C   UNL     1       1.077  -0.090   0.066  0.00  0.00    +0.000 C 
ATOM     13  C   UNL     1       2.600  -0.075   0.072  0.00  0.00    +0.000 C 
ENDBRANCH  11  13
ENDBRANCH   7  11
ENDBRANCH   1   9
BRANCH   2  14
ATOM     14  N   UNL     1       5.526  -3.866   4.300  0.00  0.00    +0.000 N 
ATOM     15  H   UNL     1       5.917  -2.939   4.370  0.00  0.00    +0.000 HD
ATOM     16  H   UNL     1       5.672  -4.489   5.086  0.00  0.00    +0.000 HD
ENDBRANCH   2  14
BRANCH   4  17
ATOM     17  N   UNL     1       2.400  -7.099   2.452  0.00  0.00    +0.000 N 
ATOM     18  H   UNL     1       2.593  -7.726   3.222  0.00  0.00    +0.000 HD
BRANCH  17  19
ATOM     19  C   UNL     1       1.428  -7.503   1.450  0.00  0.00    +0.000 C 
BRANCH  19  20
ATOM     20  C   UNL     1       0.918  -8.891   1.724  0.00  0.00    +0.000 A 
ATOM     21  C   UNL     1       1.678 -10.002   1.328  0.00  0.00    +0.000 A 
ATOM     22  C   UNL     1       1.220 -11.292   1.584  0.00  0.00    +0.000 A 
ATOM     23  C   UNL     1       0.009 -11.470   2.242  0.00  0.00    +0.000 A 
ATOM     24  F   UNL     1      -0.424 -12.711   2.499  0.00  0.00    +0.000 F 
ATOM     25  C   UNL     1      -0.760 -10.382   2.639  0.00  0.00    +0.000 A 
ATOM     26  C   UNL     1      -0.308  -9.089   2.378  0.00  0.00    +0.000 A 
ENDBRANCH  19  20
ENDBRANCH  17  19
ENDBRANCH   4  17
TORSDOF 7
