REMARK  Name = Famciclovir
REMARK  11 active torsions:
REMARK  status: ('A' for Active; 'I' for Inactive)
REMARK    1  A    between atoms: C_1  and  C_2
REMARK    2  A    between atoms: C_2  and  O_4
REMARK    3  A    between atoms: O_4  and  C_5
REMARK    4  A    between atoms: C_5  and  C_6
REMARK    5  A    between atoms: C_6  and  C_7
REMARK    6  A    between atoms: C_6  and  C_19
REMARK    7  A    between atoms: C_7  and  C_8
REMARK    8  A    between atoms: C_8  and  N_9
REMARK    9  A    between atoms: C_19  and  O_20
REMARK   10  A    between atoms: O_20  and  C_21
REMARK   11  A    between atoms: C_21  and  C_22
REMARK                            x       y       z     vdW  Elec       q    Type
REMARK                         _______ _______ _______ _____ _____    ______ ____
ROOT
ATOM      1  C   UNL     1       3.145   3.194  -1.759  0.00  0.00    +0.000 C 
ENDROOT
BRANCH   1   2
ATOM      2  N   UNL     1       2.647   4.538  -1.563  0.00  0.00    +0.000 N 
ATOM      3  C   UNL     1       3.334   5.685  -1.852  0.00  0.00    +0.000 A 
ATOM      4  N   UNL     1       2.666   6.759  -1.508  0.00  0.00    +0.000 NA
ATOM      5  C   UNL     1       1.495   6.281  -0.983  0.00  0.00    +0.000 A 
ATOM      6  C   UNL     1       0.390   6.929  -0.464  0.00  0.00    +0.000 A 
ATOM      7  N   UNL     1      -0.654   6.204   0.000  0.00  0.00    +0.000 NA
ATOM      8  C   UNL     1      -0.587   4.860  -0.051  0.00  0.00    +0.000 A 
ATOM      9  N   UNL     1      -1.685   4.215   0.448  0.00  0.00    +0.000 N 
ATOM     10  N   UNL     1       0.438   4.122  -0.535  0.00  0.00    +0.000 NA
ATOM     11  C   UNL     1       1.447   4.896  -0.992  0.00  0.00    +0.000 A 
ATOM     12  H   UNL     1      -2.439   4.796   0.781  0.00  0.00    +0.000 HD
ATOM     13  H   UNL     1      -1.732   3.214   0.437  0.00  0.00    +0.000 HD
ENDBRANCH   1   2
BRANCH   1  14
ATOM     14  C   UNL     1       4.677   3.076  -1.756  0.00  0.00    +0.000 C 
BRANCH  14  15
ATOM     15  C   UNL     1       5.204   1.642  -1.960  0.00  0.00    +0.000 C 
BRANCH  15  16
ATOM     16  C   UNL     1       4.691   0.675  -0.871  0.00  0.00    +0.000 C 
BRANCH  16  17
ATOM     17  O   UNL     1       3.257   0.539  -0.944  0.00  0.00    +0.000 OA
BRANCH  17  19
ATOM     18  C   UNL     1       1.166   0.005   0.042  0.00  0.00    +0.000 C 
ATOM     19  C   UNL     1       2.666  -0.102   0.102  0.00  0.00    +0.000 C 
ATOM     20  O   UNL     1       3.279  -0.673   0.999  0.00  0.00    +0.000 OA
ENDBRANCH  17  19
ENDBRANCH  16  17
ENDBRANCH  15  16
BRANCH  15  21
ATOM     21  C   UNL     1       6.750   1.648  -1.969  0.00  0.00    +0.000 C 
BRANCH  21  22
ATOM     22  O   UNL     1       7.257   2.495  -3.022  0.00  0.00    +0.000 OA
BRANCH  22  23
ATOM     23  C   UNL     1       8.586   2.688  -3.229  0.00  0.00    +0.000 C 
ATOM     24  C   UNL     1       9.573   1.974  -2.347  0.00  0.00    +0.000 C 
ATOM     25  O   UNL     1       8.977   3.431  -4.127  0.00  0.00    +0.000 OA
ENDBRANCH  22  23
ENDBRANCH  21  22
ENDBRANCH  15  21
ENDBRANCH  14  15
ENDBRANCH   1  14
TORSDOF 9
