REMARK  Name = Famotidine
REMARK  8 active torsions:
REMARK  status: ('A' for Active; 'I' for Inactive)
REMARK    1  A    between atoms: N_4  and  C_5
REMARK    2  A    between atoms: C_7  and  C_8
REMARK    3  A    between atoms: C_8  and  S_9
REMARK    4  A    between atoms: S_9  and  C_10
REMARK    5  A    between atoms: C_10  and  C_11
REMARK    6  A    between atoms: C_11  and  C_12
REMARK    7  A    between atoms: N_14  and  S_15
REMARK    8  A    between atoms: S_15  and  N_16
REMARK                            x       y       z     vdW  Elec       q    Type
REMARK                         _______ _______ _______ _____ _____    ______ ____
ROOT
ATOM      1  C   UNL     1       7.697   1.143  -0.833  0.00  0.00    +0.000 C 
ENDROOT
BRANCH   1   4
ATOM      2  C   UNL     1       4.613   0.461   1.030  0.00  0.00    +0.000 A 
ATOM      3  N   UNL     1       5.344   0.786  -0.017  0.00  0.00    +0.000 NA
ATOM      4  C   UNL     1       6.710   0.748   0.246  0.00  0.00    +0.000 A 
ATOM      5  C   UNL     1       7.006   0.326   1.529  0.00  0.00    +0.000 A 
ATOM      6  S   UNL     1       5.558   0.036   2.412  0.00  0.00    +0.000 S 
BRANCH   2  10
ATOM      7  N   UNL     1       1.280  -0.123   0.053  0.00  0.00    +0.000 N 
ATOM      8  C   UNL     1       2.631  -0.091   0.086  0.00  0.00    +0.000 C 
ATOM      9  N   UNL     1       3.172  -0.735  -0.981  0.00  0.00    +0.000 N 
ATOM     10  N   UNL     1       3.253   0.444   1.091  0.00  0.00    +0.000 NA
ATOM     11  H   UNL     1       0.756  -0.437  -0.747  0.00  0.00    +0.000 HD
ATOM     12  H   UNL     1       0.773   0.339   0.797  0.00  0.00    +0.000 HD
ATOM     13  H   UNL     1       2.642  -0.871  -1.827  0.00  0.00    +0.000 HD
ATOM     14  H   UNL     1       4.158  -0.523  -1.137  0.00  0.00    +0.000 HD
ENDBRANCH   2  10
ENDBRANCH   1   4
BRANCH   1  15
ATOM     15  S   UNL     1       6.816   1.643  -2.378  0.00  0.00    +0.000 S 
BRANCH  15  16
ATOM     16  C   UNL     1       8.177   2.075  -3.494  0.00  0.00    +0.000 C 
BRANCH  16  17
ATOM     17  C   UNL     1       7.618   2.541  -4.847  0.00  0.00    +0.000 C 
BRANCH  17  18
ATOM     18  C   UNL     1       8.701   2.955  -5.869  0.00  0.00    +0.000 C 
ATOM     19  N   UNL     1      10.021   2.949  -5.471  0.00  0.00    +0.000 N 
ATOM     20  N   UNL     1       8.286   3.308  -7.046  0.00  0.00    +0.000 NA
ATOM     21  H   UNL     1      10.281   2.422  -4.647  0.00  0.00    +0.000 HD
ATOM     22  H   UNL     1      10.696   2.786  -6.220  0.00  0.00    +0.000 HD
BRANCH  20  23
ATOM     23  S   UNL     1       9.331   3.707  -8.216  0.00  0.00    +0.000 S 
ATOM     24  O   UNL     1      10.288   2.635  -8.355  0.00  0.00    +0.000 OA
ATOM     25  O   UNL     1       8.606   4.225  -9.359  0.00  0.00    +0.000 OA
BRANCH  23  26
ATOM     26  N   UNL     1      10.238   5.007  -7.660  0.00  0.00    +0.000 NA
ATOM     27  H   UNL     1      10.769   4.775  -6.824  0.00  0.00    +0.000 HD
ATOM     28  H   UNL     1       9.661   5.838  -7.567  0.00  0.00    +0.000 HD
ENDBRANCH  23  26
ENDBRANCH  20  23
ENDBRANCH  17  18
ENDBRANCH  16  17
ENDBRANCH  15  16
ENDBRANCH   1  15
TORSDOF 8
