REMARK  Name = Favipiravir
REMARK  2 active torsions:
REMARK  status: ('A' for Active; 'I' for Inactive)
REMARK    1  A    between atoms: C_2  and  C_4
REMARK    2  A    between atoms: C_10  and  O_11
REMARK                            x       y       z     vdW  Elec       q    Type
REMARK                         _______ _______ _______ _____ _____    ______ ____
ROOT
ATOM      1  C   UNL     1       3.274   0.072  -1.339  0.00  0.00    +0.000 A 
ATOM      2  N   UNL     1       4.340  -0.768  -1.469  0.00  0.00    +0.000 NA
ATOM      3  C   UNL     1       4.986  -0.691  -2.648  0.00  0.00    +0.000 A 
ATOM      4  F   UNL     1       6.035  -1.500  -2.850  0.00  0.00    +0.000 F 
ATOM      5  C   UNL     1       4.596   0.183  -3.657  0.00  0.00    +0.000 A 
ATOM      6  N   UNL     1       3.534   1.031  -3.539  0.00  0.00    +0.000 NA
ATOM      7  C   UNL     1       2.889   0.948  -2.354  0.00  0.00    +0.000 A 
ENDROOT
BRANCH   1   9
ATOM      8  N   UNL     1       1.173   0.016  -0.079  0.00  0.00    +0.000 N 
ATOM      9  C   UNL     1       2.544   0.023  -0.044  0.00  0.00    +0.000 C 
ATOM     10  O   UNL     1       3.139  -0.028   1.029  0.00  0.00    +0.000 OA
ATOM     11  H   UNL     1       0.682   0.020   0.805  0.00  0.00    +0.000 HD
ATOM     12  H   UNL     1       0.636   0.119  -0.931  0.00  0.00    +0.000 HD
ENDBRANCH   1   9
BRANCH   7  13
ATOM     13  O   UNL     1       1.830   1.795  -2.229  0.00  0.00    +0.000 OA
ATOM     14  H   UNL     1       1.857   2.311  -3.054  0.00  0.00    +0.000 HD
ENDBRANCH   7  13
TORSDOF 2
