REMARK  Name = Febuxostat
REMARK  10 active torsions:
REMARK  status: ('A' for Active; 'I' for Inactive)
REMARK    1  A    between atoms: C_1  and  C_2
REMARK    2  A    between atoms: C_2  and  C_3
REMARK    3  A    between atoms: C_2  and  C_4
REMARK    4  A    between atoms: C_4  and  O_5
REMARK    5  A    between atoms: O_5  and  C_6
REMARK    6  A    between atoms: C_7  and  C_21
REMARK    7  A    between atoms: C_9  and  C_12
REMARK    8  A    between atoms: C_14  and  C_15
REMARK    9  A    between atoms: C_16  and  C_18
REMARK   10  A    between atoms: C_18  and  O_19
REMARK                            x       y       z     vdW  Elec       q    Type
REMARK                         _______ _______ _______ _____ _____    ______ ____
ROOT
ATOM      1  C   UNL     1       5.178   0.076  -2.699  0.00  0.00    +0.000 A 
ATOM      2  C   UNL     1       4.850   0.956  -3.736  0.00  0.00    +0.000 A 
ATOM      3  C   UNL     1       5.536   0.879  -4.963  0.00  0.00    +0.000 A 
ATOM      4  C   UNL     1       6.589  -0.030  -5.167  0.00  0.00    +0.000 A 
ATOM      5  C   UNL     1       6.976  -0.834  -4.088  0.00  0.00    +0.000 A 
ATOM      6  C   UNL     1       6.274  -0.785  -2.869  0.00  0.00    +0.000 A 
ENDROOT
BRANCH   4   7
ATOM      7  C   UNL     1       7.304  -0.038  -6.457  0.00  0.00    +0.000 A 
ATOM      8  N   UNL     1       7.858   1.032  -6.982  0.00  0.00    +0.000 NA
ATOM      9  C   UNL     1       8.431   0.736  -8.209  0.00  0.00    +0.000 A 
ATOM     10  C   UNL     1       9.149   1.822  -8.933  0.00  0.00    +0.000 C 
ATOM     11  C   UNL     1       8.268  -0.573  -8.649  0.00  0.00    +0.000 A 
ATOM     12  S   UNL     1       7.407  -1.455  -7.449  0.00  0.00    +0.000 S 
BRANCH  11  13
ATOM     13  C   UNL     1       8.755  -1.100  -9.916  0.00  0.00    +0.000 C 
ATOM     14  O   UNL     1       9.371  -0.443 -10.745  0.00  0.00    +0.000 OA
BRANCH  13  15
ATOM     15  O   UNL     1       8.485  -2.409 -10.154  0.00  0.00    +0.000 OA
ATOM     16  H   UNL     1       7.990  -2.875  -9.460  0.00  0.00    +0.000 HD
ENDBRANCH  13  15
ENDBRANCH  11  13
ENDBRANCH   4   7
BRANCH   2  17
ATOM     17  C   UNL     1       3.874   1.999  -3.576  0.00  0.00    +0.000 C 
ATOM     18  N   UNL     1       3.061   2.807  -3.417  0.00  0.00    +0.000 NA
ENDBRANCH   2  17
BRANCH   1  19
ATOM     19  O   UNL     1       4.582   0.052  -1.461  0.00  0.00    +0.000 OA
BRANCH  19  20
ATOM     20  C   UNL     1       3.144   0.009  -1.459  0.00  0.00    +0.000 C 
BRANCH  20  22
ATOM     21  C   UNL     1       1.090   0.042  -0.021  0.00  0.00    +0.000 C 
ATOM     22  C   UNL     1       2.619   0.008  -0.021  0.00  0.00    +0.000 C 
ATOM     23  C   UNL     1       3.122  -1.223   0.715  0.00  0.00    +0.000 C 
ENDBRANCH  20  22
ENDBRANCH  19  20
ENDBRANCH   1  19
TORSDOF 7
