REMARK  Name = Fedratinib
REMARK  13 active torsions:
REMARK  status: ('A' for Active; 'I' for Inactive)
REMARK    1  A    between atoms: C_1  and  C_2
REMARK    2  A    between atoms: N_6  and  C_7
REMARK    3  A    between atoms: C_10  and  O_11
REMARK    4  A    between atoms: O_11  and  C_12
REMARK    5  A    between atoms: C_12  and  C_13
REMARK    6  A    between atoms: C_13  and  N_14
REMARK    7  A    between atoms: N_23  and  C_24
REMARK    8  A    between atoms: C_28  and  S_30
REMARK    9  A    between atoms: S_30  and  N_33
REMARK   10  A    between atoms: N_33  and  C_34
REMARK   11  A    between atoms: C_34  and  C_35
REMARK   12  A    between atoms: C_34  and  C_36
REMARK   13  A    between atoms: C_34  and  C_37
REMARK                            x       y       z     vdW  Elec       q    Type
REMARK                         _______ _______ _______ _____ _____    ______ ____
ROOT
ATOM      1  C   UNL     1      -2.502   0.347   0.133  0.00  0.00    +0.000 C 
ATOM      2  C   UNL     1      -1.032   0.116   0.062  0.00  0.00    +0.000 A 
ATOM      3  C   UNL     1      -0.200   1.214   0.008  0.00  0.00    +0.000 A 
ATOM      4  N   UNL     1       1.137   1.148  -0.022  0.00  0.00    +0.000 NA
ATOM      5  C   UNL     1       1.660  -0.081   0.001  0.00  0.00    +0.000 A 
ATOM      6  N   UNL     1       3.043  -0.167   0.105  0.00  0.00    +0.000 N 
ATOM      7  N   UNL     1       0.929  -1.213   0.004  0.00  0.00    +0.000 NA
ATOM      8  C   UNL     1      -0.408  -1.125   0.031  0.00  0.00    +0.000 A 
ATOM      9  N   UNL     1      -1.087  -2.352   0.069  0.00  0.00    +0.000 N 
ATOM     10  H   UNL     1       3.503   0.728   0.048  0.00  0.00    +0.000 HD
ATOM     11  H   UNL     1      -0.465  -3.151   0.125  0.00  0.00    +0.000 HD
ENDROOT
BRANCH   6  12
ATOM     12  C   UNL     1       3.816  -1.317  -0.038  0.00  0.00    +0.000 A 
ATOM     13  C   UNL     1       4.795  -1.626   0.907  0.00  0.00    +0.000 A 
ATOM     14  C   UNL     1       5.573  -2.779   0.773  0.00  0.00    +0.000 A 
ATOM     15  C   UNL     1       5.350  -3.661  -0.284  0.00  0.00    +0.000 A 
ATOM     16  C   UNL     1       4.371  -3.352  -1.233  0.00  0.00    +0.000 A 
ATOM     17  C   UNL     1       3.619  -2.186  -1.113  0.00  0.00    +0.000 A 
BRANCH  15  18
ATOM     18  O   UNL     1       6.137  -4.789  -0.283  0.00  0.00    +0.000 OA
BRANCH  18  19
ATOM     19  C   UNL     1       5.747  -5.755  -1.256  0.00  0.00    +0.000 C 
BRANCH  19  20
ATOM     20  C   UNL     1       6.510  -7.079  -1.109  0.00  0.00    +0.000 C 
BRANCH  20  21
ATOM     21  N   UNL     1       6.178  -8.059  -2.178  0.00  0.00    +0.000 NA
ATOM     22  C   UNL     1       4.726  -8.202  -2.393  0.00  0.00    +0.000 C 
ATOM     23  C   UNL     1       4.294  -9.128  -1.279  0.00  0.00    +0.000 C 
ATOM     24  C   UNL     1       5.378 -10.184  -1.349  0.00  0.00    +0.000 C 
ATOM     25  C   UNL     1       6.629  -9.419  -1.795  0.00  0.00    +0.000 C 
ENDBRANCH  20  21
ENDBRANCH  19  20
ENDBRANCH  18  19
ENDBRANCH  15  18
ENDBRANCH   6  12
BRANCH   9  26
ATOM     26  C   UNL     1      -2.454  -2.612  -0.060  0.00  0.00    +0.000 A 
ATOM     27  C   UNL     1      -3.181  -3.171   1.000  0.00  0.00    +0.000 A 
ATOM     28  C   UNL     1      -4.575  -3.239   0.947  0.00  0.00    +0.000 A 
ATOM     29  C   UNL     1      -5.249  -2.653  -0.116  0.00  0.00    +0.000 A 
ATOM     30  C   UNL     1      -4.518  -2.121  -1.182  0.00  0.00    +0.000 A 
ATOM     31  C   UNL     1      -3.133  -2.183  -1.203  0.00  0.00    +0.000 A 
BRANCH  30  32
ATOM     32  S   UNL     1      -5.440  -1.353  -2.462  0.00  0.00    +0.000 S 
ATOM     33  O   UNL     1      -6.059  -2.461  -3.141  0.00  0.00    +0.000 OA
ATOM     34  O   UNL     1      -6.209  -0.300  -1.824  0.00  0.00    +0.000 OA
BRANCH  32  35
ATOM     35  N   UNL     1      -4.332  -0.612  -3.553  0.00  0.00    +0.000 NA
ATOM     36  H   UNL     1      -3.614  -1.283  -3.831  0.00  0.00    +0.000 HD
BRANCH  35  37
ATOM     37  C   UNL     1      -4.946   0.035  -4.781  0.00  0.00    +0.000 C 
ATOM     38  C   UNL     1      -5.655  -1.034  -5.618  0.00  0.00    +0.000 C 
ATOM     39  C   UNL     1      -5.904   1.161  -4.388  0.00  0.00    +0.000 C 
ATOM     40  C   UNL     1      -3.838   0.649  -5.660  0.00  0.00    +0.000 C 
ENDBRANCH  35  37
ENDBRANCH  32  35
ENDBRANCH  30  32
ENDBRANCH   9  26
TORSDOF 9
