REMARK  Name = Felbamate
REMARK  7 active torsions:
REMARK  status: ('A' for Active; 'I' for Inactive)
REMARK    1  A    between atoms: C_2  and  O_4
REMARK    2  A    between atoms: O_4  and  C_5
REMARK    3  A    between atoms: C_5  and  C_6
REMARK    4  A    between atoms: C_6  and  C_7
REMARK    5  A    between atoms: C_6  and  C_12
REMARK    6  A    between atoms: C_7  and  O_8
REMARK    7  A    between atoms: O_8  and  C_9
REMARK                            x       y       z     vdW  Elec       q    Type
REMARK                         _______ _______ _______ _____ _____    ______ ____
ROOT
ATOM      1  C   UNL     1       5.049  -2.214   1.420  0.00  0.00    +0.000 C 
ENDROOT
BRANCH   1   2
ATOM      2  C   UNL     1       6.583  -2.187   1.469  0.00  0.00    +0.000 A 
ATOM      3  C   UNL     1       7.315  -3.256   2.023  0.00  0.00    +0.000 A 
ATOM      4  C   UNL     1       8.703  -3.178   2.171  0.00  0.00    +0.000 A 
ATOM      5  C   UNL     1       9.395  -2.066   1.704  0.00  0.00    +0.000 A 
ATOM      6  C   UNL     1       8.698  -1.012   1.131  0.00  0.00    +0.000 A 
ATOM      7  C   UNL     1       7.310  -1.071   1.022  0.00  0.00    +0.000 A 
ENDBRANCH   1   2
BRANCH   1   8
ATOM      8  C   UNL     1       4.445  -1.027   0.621  0.00  0.00    +0.000 C 
BRANCH   8   9
ATOM      9  O   UNL     1       3.011  -1.002   0.647  0.00  0.00    +0.000 OA
BRANCH   9  11
ATOM     10  N   UNL     1       1.116  -0.065  -0.052  0.00  0.00    +0.000 N 
ATOM     11  C   UNL     1       2.464  -0.014  -0.098  0.00  0.00    +0.000 C 
ATOM     12  O   UNL     1       3.079   0.830  -0.737  0.00  0.00    +0.000 OA
ATOM     13  H   UNL     1       0.584   0.610  -0.580  0.00  0.00    +0.000 HD
ATOM     14  H   UNL     1       0.646  -0.807   0.448  0.00  0.00    +0.000 HD
ENDBRANCH   9  11
ENDBRANCH   8   9
ENDBRANCH   1   8
BRANCH   1  15
ATOM     15  C   UNL     1       4.549  -3.560   0.864  0.00  0.00    +0.000 C 
BRANCH  15  16
ATOM     16  O   UNL     1       3.116  -3.629   0.895  0.00  0.00    +0.000 OA
BRANCH  16  17
ATOM     17  C   UNL     1       2.433  -4.682   0.391  0.00  0.00    +0.000 C 
ATOM     18  N   UNL     1       3.166  -5.723  -0.083  0.00  0.00    +0.000 N 
ATOM     19  O   UNL     1       1.209  -4.710   0.369  0.00  0.00    +0.000 OA
ATOM     20  H   UNL     1       4.170  -5.766  -0.096  0.00  0.00    +0.000 HD
ATOM     21  H   UNL     1       2.647  -6.513  -0.440  0.00  0.00    +0.000 HD
ENDBRANCH  16  17
ENDBRANCH  15  16
ENDBRANCH   1  15
TORSDOF 7
