REMARK  Name = Felodipine
REMARK  10 active torsions:
REMARK  status: ('A' for Active; 'I' for Inactive)
REMARK    1  A    between atoms: C_1  and  C_2
REMARK    2  A    between atoms: C_2  and  O_3
REMARK    3  A    between atoms: O_3  and  C_4
REMARK    4  A    between atoms: C_4  and  C_6
REMARK    5  A    between atoms: C_7  and  C_8
REMARK    6  A    between atoms: C_10  and  C_11
REMARK    7  A    between atoms: C_12  and  C_22
REMARK    8  A    between atoms: C_13  and  C_14
REMARK    9  A    between atoms: C_22  and  O_24
REMARK   10  A    between atoms: O_24  and  C_25
REMARK                            x       y       z     vdW  Elec       q    Type
REMARK                         _______ _______ _______ _____ _____    ______ ____
ROOT
ATOM      1  C   UNL     1       4.827  -1.752   2.282  0.00  0.00    +0.000 C 
ATOM      2  C   UNL     1       4.293  -2.983   2.462  0.00  0.00    +0.000 C 
ATOM      3  C   UNL     1       3.028  -3.521   1.856  0.00  0.00    +0.000 C 
ATOM      4  N   UNL     1       4.951  -3.888   3.284  0.00  0.00    +0.000 N 
ATOM      5  C   UNL     1       6.228  -3.730   3.798  0.00  0.00    +0.000 C 
ATOM      6  C   UNL     1       6.793  -4.947   4.482  0.00  0.00    +0.000 C 
ATOM      7  C   UNL     1       6.864  -2.537   3.683  0.00  0.00    +0.000 C 
ATOM      8  C   UNL     1       6.068  -1.347   3.112  0.00  0.00    +0.000 C 
ATOM      9  H   UNL     1       4.395  -4.652   3.662  0.00  0.00    +0.000 HD
ENDROOT
BRANCH   8  10
ATOM     10  C   UNL     1       5.679  -0.394   4.273  0.00  0.00    +0.000 A 
ATOM     11  C   UNL     1       4.789  -0.702   5.345  0.00  0.00    +0.000 A 
ATOM     12 CL   UNL     1       3.881  -2.173   5.469  0.00  0.00    +0.000 Cl
ATOM     13  C   UNL     1       4.613   0.207   6.404  0.00  0.00    +0.000 A 
ATOM     14 CL   UNL     1       3.552  -0.101   7.745  0.00  0.00    +0.000 Cl
ATOM     15  C   UNL     1       5.311   1.408   6.424  0.00  0.00    +0.000 A 
ATOM     16  C   UNL     1       6.169   1.733   5.380  0.00  0.00    +0.000 A 
ATOM     17  C   UNL     1       6.340   0.853   4.310  0.00  0.00    +0.000 A 
ENDBRANCH   8  10
BRANCH   1  18
ATOM     18  C   UNL     1       4.375  -0.814   1.215  0.00  0.00    +0.000 C 
ATOM     19  O   UNL     1       5.175  -0.232   0.487  0.00  0.00    +0.000 OA
BRANCH  18  20
ATOM     20  O   UNL     1       3.022  -0.690   1.128  0.00  0.00    +0.000 OA
BRANCH  20  22
ATOM     21  C   UNL     1       1.013   0.050  -0.030  0.00  0.00    +0.000 C 
ATOM     22  C   UNL     1       2.537   0.064  -0.004  0.00  0.00    +0.000 C 
ENDBRANCH  20  22
ENDBRANCH  18  20
ENDBRANCH   1  18
BRANCH   7  23
ATOM     23  C   UNL     1       8.289  -2.396   4.132  0.00  0.00    +0.000 C 
ATOM     24  O   UNL     1       8.941  -3.305   4.640  0.00  0.00    +0.000 OA
BRANCH  23  25
ATOM     25  O   UNL     1       8.818  -1.165   3.896  0.00  0.00    +0.000 OA
ATOM     26  C   UNL     1      10.200  -1.053   4.295  0.00  0.00    +0.000 C 
ENDBRANCH  23  25
ENDBRANCH   7  23
TORSDOF 6
