REMARK  Name = Fenbufen
REMARK  6 active torsions:
REMARK  status: ('A' for Active; 'I' for Inactive)
REMARK    1  A    between atoms: O_1  and  C_2
REMARK    2  A    between atoms: C_2  and  C_4
REMARK    3  A    between atoms: C_4  and  C_5
REMARK    4  A    between atoms: C_5  and  C_6
REMARK    5  A    between atoms: C_6  and  C_8
REMARK    6  A    between atoms: C_11  and  C_14
REMARK                            x       y       z     vdW  Elec       q    Type
REMARK                         _______ _______ _______ _____ _____    ______ ____
ROOT
ATOM      1  C   UNL     1       6.827   1.681  -1.591  0.00  0.00    +0.000 A 
ATOM      2  C   UNL     1       7.541   2.882  -1.615  0.00  0.00    +0.000 A 
ATOM      3  C   UNL     1       8.931   2.860  -1.752  0.00  0.00    +0.000 A 
ATOM      4  C   UNL     1       9.637   1.645  -1.792  0.00  0.00    +0.000 A 
ATOM      5  C   UNL     1       8.905   0.449  -1.773  0.00  0.00    +0.000 A 
ATOM      6  C   UNL     1       7.509   0.464  -1.669  0.00  0.00    +0.000 A 
ENDROOT
BRANCH   4   7
ATOM      7  C   UNL     1      11.104   1.648  -1.837  0.00  0.00    +0.000 A 
ATOM      8  C   UNL     1      11.841   2.311  -0.840  0.00  0.00    +0.000 A 
ATOM      9  C   UNL     1      13.228   2.433  -0.934  0.00  0.00    +0.000 A 
ATOM     10  C   UNL     1      13.907   1.822  -1.985  0.00  0.00    +0.000 A 
ATOM     11  C   UNL     1      13.197   1.120  -2.957  0.00  0.00    +0.000 A 
ATOM     12  C   UNL     1      11.804   1.038  -2.887  0.00  0.00    +0.000 A 
ENDBRANCH   4   7
BRANCH   1  13
ATOM     13  C   UNL     1       5.342   1.729  -1.591  0.00  0.00    +0.000 C 
ATOM     14  O   UNL     1       4.774   2.581  -2.270  0.00  0.00    +0.000 OA
BRANCH  13  15
ATOM     15  C   UNL     1       4.590   0.728  -0.740  0.00  0.00    +0.000 C 
BRANCH  15  16
ATOM     16  C   UNL     1       3.072   0.886  -0.880  0.00  0.00    +0.000 C 
BRANCH  16  17
ATOM     17  C   UNL     1       2.365  -0.108   0.005  0.00  0.00    +0.000 C 
ATOM     18  O   UNL     1       2.938  -0.920   0.725  0.00  0.00    +0.000 OA
BRANCH  17  19
ATOM     19  O   UNL     1       1.019  -0.041  -0.058  0.00  0.00    +0.000 OA
ATOM     20  H   UNL     1       0.662   0.637  -0.662  0.00  0.00    +0.000 HD
ENDBRANCH  17  19
ENDBRANCH  16  17
ENDBRANCH  15  16
ENDBRANCH  13  15
ENDBRANCH   1  13
TORSDOF 6
