REMARK  Name = Fenfluramine
REMARK  7 active torsions:
REMARK  status: ('A' for Active; 'I' for Inactive)
REMARK    1  A    between atoms: C_1  and  C_2
REMARK    2  A    between atoms: C_2  and  N_3
REMARK    3  A    between atoms: N_3  and  C_4
REMARK    4  A    between atoms: C_4  and  C_5
REMARK    5  A    between atoms: C_4  and  C_6
REMARK    6  A    between atoms: C_6  and  C_7
REMARK    7  A    between atoms: C_11  and  C_13
REMARK                            x       y       z     vdW  Elec       q    Type
REMARK                         _______ _______ _______ _____ _____    ______ ____
ROOT
ATOM      1  C   UNL     1       6.528  -1.582  -2.451  0.00  0.00    +0.000 A 
ATOM      2  C   UNL     1       7.207  -2.229  -3.490  0.00  0.00    +0.000 A 
ATOM      3  C   UNL     1       8.598  -2.386  -3.422  0.00  0.00    +0.000 A 
ATOM      4  C   UNL     1       9.316  -1.940  -2.309  0.00  0.00    +0.000 A 
ATOM      5  C   UNL     1       8.656  -1.266  -1.280  0.00  0.00    +0.000 A 
ATOM      6  C   UNL     1       7.299  -1.001  -1.440  0.00  0.00    +0.000 A 
ENDROOT
BRANCH   5   7
ATOM      7  C   UNL     1       9.327  -0.883   0.014  0.00  0.00    +0.000 C 
ATOM      8  F   UNL     1       9.971  -1.930   0.602  0.00  0.00    +0.000 F 
ATOM      9  F   UNL     1      10.251   0.100  -0.139  0.00  0.00    +0.000 F 
ATOM     10  F   UNL     1       8.451  -0.425   0.959  0.00  0.00    +0.000 F 
ENDBRANCH   5   7
BRANCH   1  11
ATOM     11  C   UNL     1       5.008  -1.620  -2.366  0.00  0.00    +0.000 C 
BRANCH  11  12
ATOM     12  C   UNL     1       4.413  -0.919  -1.108  0.00  0.00    +0.000 C 
ATOM     13  C   UNL     1       4.814  -1.637   0.205  0.00  0.00    +0.000 C 
BRANCH  12  14
ATOM     14  N   UNL     1       2.941  -0.853  -1.173  0.00  0.00    +0.000 NA
ATOM     15  H   UNL     1       2.653  -0.444  -2.062  0.00  0.00    +0.000 HD
BRANCH  14  17
ATOM     16  C   UNL     1       0.893  -0.054  -0.096  0.00  0.00    +0.000 C 
ATOM     17  C   UNL     1       2.405  -0.044  -0.074  0.00  0.00    +0.000 C 
ENDBRANCH  14  17
ENDBRANCH  12  14
ENDBRANCH  11  12
ENDBRANCH   1  11
TORSDOF 5
