REMARK  Name = Fenoterol
REMARK  11 active torsions:
REMARK  status: ('A' for Active; 'I' for Inactive)
REMARK    1  A    between atoms: C_1  and  C_2
REMARK    2  A    between atoms: C_2  and  C_3
REMARK    3  A    between atoms: C_2  and  N_11
REMARK    4  A    between atoms: C_3  and  C_4
REMARK    5  A    between atoms: C_7  and  O_8
REMARK    6  A    between atoms: N_11  and  C_12
REMARK    7  A    between atoms: C_12  and  C_13
REMARK    8  A    between atoms: C_13  and  O_14
REMARK    9  A    between atoms: C_13  and  C_15
REMARK   10  A    between atoms: C_17  and  O_18
REMARK   11  A    between atoms: C_20  and  O_21
REMARK                            x       y       z     vdW  Elec       q    Type
REMARK                         _______ _______ _______ _____ _____    ______ ____
ROOT
ATOM      1  C   UNL     1       4.504  -0.827  -1.127  0.00  0.00    +0.000 C 
ENDROOT
BRANCH   1   2
ATOM      2  N   UNL     1       3.036  -0.827  -1.065  0.00  0.00    +0.000 NA
ATOM      3  H   UNL     1       2.667  -0.562  -1.981  0.00  0.00    +0.000 HD
BRANCH   2   5
ATOM      4  C   UNL     1       0.991   0.075  -0.080  0.00  0.00    +0.000 C 
ATOM      5  C   UNL     1       2.523   0.073  -0.022  0.00  0.00    +0.000 C 
BRANCH   5   6
ATOM      6  C   UNL     1       3.009  -0.359   1.381  0.00  0.00    +0.000 C 
BRANCH   6   7
ATOM      7  C   UNL     1       2.601   0.586   2.477  0.00  0.00    +0.000 A 
ATOM      8  C   UNL     1       2.921   1.947   2.389  0.00  0.00    +0.000 A 
ATOM      9  C   UNL     1       2.572   2.822   3.412  0.00  0.00    +0.000 A 
ATOM     10  C   UNL     1       1.918   2.320   4.533  0.00  0.00    +0.000 A 
ATOM     11  C   UNL     1       1.602   0.973   4.639  0.00  0.00    +0.000 A 
ATOM     12  C   UNL     1       1.939   0.099   3.610  0.00  0.00    +0.000 A 
BRANCH  10  13
ATOM     13  O   UNL     1       1.573   3.138   5.568  0.00  0.00    +0.000 OA
ATOM     14  H   UNL     1       1.855   4.040   5.351  0.00  0.00    +0.000 HD
ENDBRANCH  10  13
ENDBRANCH   6   7
ENDBRANCH   5   6
ENDBRANCH   2   5
ENDBRANCH   1   2
BRANCH   1  15
ATOM     15  C   UNL     1       5.028  -1.740  -2.250  0.00  0.00    +0.000 C 
BRANCH  15  16
ATOM     16  C   UNL     1       6.542  -1.743  -2.241  0.00  0.00    +0.000 A 
ATOM     17  C   UNL     1       7.292  -0.666  -2.743  0.00  0.00    +0.000 A 
ATOM     18  C   UNL     1       8.684  -0.705  -2.695  0.00  0.00    +0.000 A 
ATOM     19  C   UNL     1       9.352  -1.792  -2.147  0.00  0.00    +0.000 A 
ATOM     20  C   UNL     1       8.611  -2.842  -1.619  0.00  0.00    +0.000 A 
ATOM     21  C   UNL     1       7.221  -2.823  -1.654  0.00  0.00    +0.000 A 
BRANCH  18  22
ATOM     22  O   UNL     1       9.437   0.324  -3.180  0.00  0.00    +0.000 OA
ATOM     23  H   UNL     1       8.848   1.010  -3.532  0.00  0.00    +0.000 HD
ENDBRANCH  18  22
BRANCH  20  24
ATOM     24  O   UNL     1       9.212  -3.925  -1.050  0.00  0.00    +0.000 OA
ATOM     25  H   UNL     1      10.175  -3.820  -1.129  0.00  0.00    +0.000 HD
ENDBRANCH  20  24
ENDBRANCH  15  16
BRANCH  15  26
ATOM     26  O   UNL     1       4.529  -1.317  -3.521  0.00  0.00    +0.000 OA
ATOM     27  H   UNL     1       4.767  -0.385  -3.636  0.00  0.00    +0.000 HD
ENDBRANCH  15  26
ENDBRANCH   1  15
TORSDOF 10
