REMARK  Name = Fenofibrate
REMARK  11 active torsions:
REMARK  status: ('A' for Active; 'I' for Inactive)
REMARK    1  A    between atoms: C_1  and  C_2
REMARK    2  A    between atoms: C_2  and  C_3
REMARK    3  A    between atoms: C_2  and  O_4
REMARK    4  A    between atoms: O_4  and  C_5
REMARK    5  A    between atoms: C_5  and  C_7
REMARK    6  A    between atoms: C_7  and  C_8
REMARK    7  A    between atoms: C_7  and  C_9
REMARK    8  A    between atoms: C_7  and  O_10
REMARK    9  A    between atoms: O_10  and  C_11
REMARK   10  A    between atoms: C_14  and  C_17
REMARK   11  A    between atoms: C_17  and  C_19
REMARK                            x       y       z     vdW  Elec       q    Type
REMARK                         _______ _______ _______ _____ _____    ______ ____
ROOT
ATOM      1  C   UNL     1       7.040   1.078   4.202  0.00  0.00    +0.000 A 
ATOM      2  C   UNL     1       8.191   1.870   4.146  0.00  0.00    +0.000 A 
ATOM      3  C   UNL     1       9.001   2.032   5.290  0.00  0.00    +0.000 A 
ATOM      4  C   UNL     1       8.598   1.497   6.523  0.00  0.00    +0.000 A 
ATOM      5  C   UNL     1       7.449   0.725   6.566  0.00  0.00    +0.000 A 
ATOM      6  C   UNL     1       6.740   0.464   5.407  0.00  0.00    +0.000 A 
ENDROOT
BRANCH   4   7
ATOM      7  C   UNL     1       9.360   1.771   7.770  0.00  0.00    +0.000 C 
ATOM      8  O   UNL     1      10.343   2.506   7.748  0.00  0.00    +0.000 OA
BRANCH   7   9
ATOM      9  C   UNL     1       8.951   1.185   9.074  0.00  0.00    +0.000 A 
ATOM     10  C   UNL     1       8.767   2.024  10.178  0.00  0.00    +0.000 A 
ATOM     11  C   UNL     1       8.561   1.465  11.444  0.00  0.00    +0.000 A 
ATOM     12  C   UNL     1       8.446   0.081  11.584  0.00  0.00    +0.000 A 
ATOM     13 CL   UNL     1       8.125  -0.600  13.130  0.00  0.00    +0.000 Cl
ATOM     14  C   UNL     1       8.576  -0.755  10.478  0.00  0.00    +0.000 A 
ATOM     15  C   UNL     1       8.850  -0.205   9.225  0.00  0.00    +0.000 A 
ENDBRANCH   7   9
ENDBRANCH   4   7
BRANCH   1  16
ATOM     16  O   UNL     1       6.343   0.842   3.050  0.00  0.00    +0.000 OA
BRANCH  16  17
ATOM     17  C   UNL     1       4.884   0.817   3.035  0.00  0.00    +0.000 C 
ATOM     18  C   UNL     1       4.369   2.218   3.367  0.00  0.00    +0.000 C 
ATOM     19  C   UNL     1       4.228  -0.234   3.940  0.00  0.00    +0.000 C 
BRANCH  17  20
ATOM     20  C   UNL     1       4.471   0.419   1.593  0.00  0.00    +0.000 C 
ATOM     21  O   UNL     1       5.264   0.065   0.718  0.00  0.00    +0.000 OA
BRANCH  20  22
ATOM     22  O   UNL     1       3.108   0.451   1.412  0.00  0.00    +0.000 OA
BRANCH  22  24
ATOM     23  C   UNL     1       1.080   0.017   0.138  0.00  0.00    +0.000 C 
ATOM     24  C   UNL     1       2.612   0.054   0.109  0.00  0.00    +0.000 C 
ATOM     25  C   UNL     1       3.048   1.057  -0.955  0.00  0.00    +0.000 C 
ENDBRANCH  22  24
ENDBRANCH  20  22
ENDBRANCH  17  20
ENDBRANCH  16  17
ENDBRANCH   1  16
TORSDOF 7
