REMARK  Name = Fenoldopam
REMARK  4 active torsions:
REMARK  status: ('A' for Active; 'I' for Inactive)
REMARK    1  A    between atoms: O_1  and  C_2
REMARK    2  A    between atoms: C_5  and  C_8
REMARK    3  A    between atoms: C_16  and  O_17
REMARK    4  A    between atoms: C_18  and  O_19
REMARK                            x       y       z     vdW  Elec       q    Type
REMARK                         _______ _______ _______ _____ _____    ______ ____
ROOT
ATOM      1  C   UNL     1      -4.358  -2.005   0.632  0.00  0.00    +0.000 C 
ATOM      2  C   UNL     1      -3.895  -1.898  -0.632  0.00  0.00    +0.000 C 
ATOM      3  N   UNL     1      -5.360  -1.119  -0.675  0.00  0.00    +0.000 NA
ATOM      4  C   UNL     1      -6.316  -2.001  -0.235  0.00  0.00    +0.000 C 
ATOM      5  C   UNL     1      -7.684  -2.176  -0.150  0.00  0.00    +0.000 C 
ATOM      6  C   UNL     1      -7.311  -3.622   0.017  0.00  0.00    +0.000 A 
ATOM      7  C   UNL     1      -9.065  -4.144  -0.136  0.00  0.00    +0.000 A 
ATOM      8 CL   UNL     1     -10.414  -2.910  -0.151  0.00  0.00    +0.000 Cl
ATOM      9  C   UNL     1      -9.639  -5.384  -0.161  0.00  0.00    +0.000 A 
ATOM     10  C   UNL     1      -8.453  -6.050  -0.081  0.00  0.00    +0.000 A 
ATOM     11  C   UNL     1      -6.722  -5.268   0.047  0.00  0.00    +0.000 A 
ATOM     12  C   UNL     1      -5.514  -3.884   0.195  0.00  0.00    +0.000 A 
ATOM     13  H   UNL     1      -5.629  -0.519  -1.390  0.00  0.00    +0.000 HD
ENDROOT
BRANCH   1  17
ATOM     14  C   UNL     1       0.793  -0.031   0.005  0.00  0.00    +0.000 A 
ATOM     15  C   UNL     1      -0.112   0.997   0.024  0.00  0.00    +0.000 A 
ATOM     16  C   UNL     1      -1.812   0.691   0.130  0.00  0.00    +0.000 A 
ATOM     17  C   UNL     1      -2.691  -0.822   0.303  0.00  0.00    +0.000 A 
ATOM     18  C   UNL     1      -1.439  -1.498   0.131  0.00  0.00    +0.000 A 
ATOM     19  C   UNL     1       0.099  -1.221   0.019  0.00  0.00    +0.000 A 
BRANCH  14  20
ATOM     20  O   UNL     1       2.160  -0.034  -0.011  0.00  0.00    +0.000 OA
ATOM     21  H   UNL     1       2.590   0.841  -0.020  0.00  0.00    +0.000 HD
ENDBRANCH  14  20
ENDBRANCH   1  17
BRANCH   9  22
ATOM     22  O   UNL     1     -10.939  -5.848  -0.215  0.00  0.00    +0.000 OA
ATOM     23  H   UNL     1     -11.649  -5.154  -0.244  0.00  0.00    +0.000 HD
ENDBRANCH   9  22
BRANCH  10  24
ATOM     24  O   UNL     1      -8.943  -7.581  -0.111  0.00  0.00    +0.000 OA
ATOM     25  H   UNL     1      -9.973  -7.763  -0.133  0.00  0.00    +0.000 HD
ENDBRANCH  10  24
TORSDOF 4
