REMARK  Name = Fenofibric acid
REMARK  8 active torsions:
REMARK  status: ('A' for Active; 'I' for Inactive)
REMARK    1  A    between atoms: C_1  and  C_2
REMARK    2  A    between atoms: C_2  and  C_3
REMARK    3  A    between atoms: C_2  and  O_4
REMARK    4  A    between atoms: C_2  and  C_20
REMARK    5  A    between atoms: O_4  and  C_5
REMARK    6  A    between atoms: C_8  and  C_11
REMARK    7  A    between atoms: C_11  and  C_13
REMARK    8  A    between atoms: C_20  and  O_21
REMARK                            x       y       z     vdW  Elec       q    Type
REMARK                         _______ _______ _______ _____ _____    ______ ____
ROOT
ATOM      1  C   UNL     1       2.610   1.087  -2.276  0.00  0.00    +0.000 A 
ATOM      2  C   UNL     1       3.578   1.367  -3.246  0.00  0.00    +0.000 A 
ATOM      3  C   UNL     1       3.212   1.477  -4.606  0.00  0.00    +0.000 A 
ATOM      4  C   UNL     1       1.902   1.187  -5.014  0.00  0.00    +0.000 A 
ATOM      5  C   UNL     1       0.956   0.902  -4.042  0.00  0.00    +0.000 A 
ATOM      6  C   UNL     1       1.299   0.939  -2.702  0.00  0.00    +0.000 A 
ENDROOT
BRANCH   4   7
ATOM      7  C   UNL     1       1.524   1.153  -6.453  0.00  0.00    +0.000 C 
ATOM      8  O   UNL     1       2.364   1.359  -7.324  0.00  0.00    +0.000 OA
BRANCH   7   9
ATOM      9  C   UNL     1       0.134   0.832  -6.871  0.00  0.00    +0.000 A 
ATOM     10  C   UNL     1      -0.097  -0.254  -7.723  0.00  0.00    +0.000 A 
ATOM     11  C   UNL     1      -1.391  -0.497  -8.198  0.00  0.00    +0.000 A 
ATOM     12  C   UNL     1      -2.456   0.288  -7.752  0.00  0.00    +0.000 A 
ATOM     13 CL   UNL     1      -4.059  -0.074  -8.259  0.00  0.00    +0.000 Cl
ATOM     14  C   UNL     1      -2.234   1.351  -6.878  0.00  0.00    +0.000 A 
ATOM     15  C   UNL     1      -0.935   1.638  -6.456  0.00  0.00    +0.000 A 
ENDBRANCH   7   9
ENDBRANCH   4   7
BRANCH   1  16
ATOM     16  O   UNL     1       2.961   1.096  -0.951  0.00  0.00    +0.000 OA
BRANCH  16  18
ATOM     17  C   UNL     1       0.943  -0.030   0.076  0.00  0.00    +0.000 C 
ATOM     18  C   UNL     1       2.470   0.059  -0.052  0.00  0.00    +0.000 C 
ATOM     19  C   UNL     1       3.016  -1.303  -0.504  0.00  0.00    +0.000 C 
BRANCH  18  20
ATOM     20  C   UNL     1       3.088   0.362   1.347  0.00  0.00    +0.000 C 
ATOM     21  O   UNL     1       4.300   0.409   1.557  0.00  0.00    +0.000 OA
BRANCH  20  22
ATOM     22  O   UNL     1       2.237   0.551   2.386  0.00  0.00    +0.000 OA
ATOM     23  H   UNL     1       1.276   0.559   2.226  0.00  0.00    +0.000 HD
ENDBRANCH  20  22
ENDBRANCH  18  20
ENDBRANCH  16  18
ENDBRANCH   1  16
TORSDOF 6
