REMARK  Name = Fenoprofen
REMARK  6 active torsions:
REMARK  status: ('A' for Active; 'I' for Inactive)
REMARK    1  A    between atoms: C_1  and  C_2
REMARK    2  A    between atoms: C_2  and  C_3
REMARK    3  A    between atoms: C_2  and  C_6
REMARK    4  A    between atoms: C_3  and  O_4
REMARK    5  A    between atoms: C_8  and  O_9
REMARK    6  A    between atoms: O_9  and  C_10
REMARK                            x       y       z     vdW  Elec       q    Type
REMARK                         _______ _______ _______ _____ _____    ______ ____
ROOT
ATOM      1  C   UNL     1       3.006   1.426  -0.615  0.00  0.00    +0.000 A 
ATOM      2  C   UNL     1       4.251   1.669  -1.220  0.00  0.00    +0.000 A 
ATOM      3  C   UNL     1       4.594   2.956  -1.651  0.00  0.00    +0.000 A 
ATOM      4  C   UNL     1       3.710   4.018  -1.462  0.00  0.00    +0.000 A 
ATOM      5  C   UNL     1       2.560   3.834  -0.723  0.00  0.00    +0.000 A 
ATOM      6  C   UNL     1       2.219   2.556  -0.307  0.00  0.00    +0.000 A 
ENDROOT
BRANCH   1   8
ATOM      7  C   UNL     1       0.986  -0.038  -0.087  0.00  0.00    +0.000 C 
ATOM      8  C   UNL     1       2.527   0.042  -0.168  0.00  0.00    +0.000 C 
BRANCH   8   9
ATOM      9  C   UNL     1       2.975  -1.201  -0.938  0.00  0.00    +0.000 C 
ATOM     10  O   UNL     1       2.743  -2.335  -0.518  0.00  0.00    +0.000 OA
BRANCH   9  11
ATOM     11  O   UNL     1       3.590  -1.050  -2.125  0.00  0.00    +0.000 OA
ATOM     12  H   UNL     1       3.608  -0.149  -2.493  0.00  0.00    +0.000 HD
ENDBRANCH   9  11
ENDBRANCH   8   9
ENDBRANCH   1   8
BRANCH   3  13
ATOM     13  O   UNL     1       5.819   3.087  -2.266  0.00  0.00    +0.000 OA
BRANCH  13  14
ATOM     14  C   UNL     1       6.367   4.347  -2.345  0.00  0.00    +0.000 A 
ATOM     15  C   UNL     1       6.863   4.736  -3.585  0.00  0.00    +0.000 A 
ATOM     16  C   UNL     1       7.451   5.991  -3.725  0.00  0.00    +0.000 A 
ATOM     17  C   UNL     1       7.473   6.879  -2.648  0.00  0.00    +0.000 A 
ATOM     18  C   UNL     1       6.966   6.493  -1.408  0.00  0.00    +0.000 A 
ATOM     19  C   UNL     1       6.452   5.210  -1.244  0.00  0.00    +0.000 A 
ENDBRANCH  13  14
ENDBRANCH   3  13
TORSDOF 5
