REMARK  Name = Fenpropidin
REMARK  9 active torsions:
REMARK  status: ('A' for Active; 'I' for Inactive)
REMARK    1  A    between atoms: C_1  and  C_2
REMARK    2  A    between atoms: C_2  and  C_3
REMARK    3  A    between atoms: C_2  and  C_10
REMARK    4  A    between atoms: C_3  and  N_4
REMARK    5  A    between atoms: C_10  and  C_11
REMARK    6  A    between atoms: C_14  and  C_17
REMARK    7  A    between atoms: C_17  and  C_18
REMARK    8  A    between atoms: C_17  and  C_19
REMARK    9  A    between atoms: C_17  and  C_20
REMARK                            x       y       z     vdW  Elec       q    Type
REMARK                         _______ _______ _______ _____ _____    ______ ____
ROOT
ATOM      1  C   UNL     1       3.150  -1.502  -0.332  0.00  0.00    +0.000 C 
ENDROOT
BRANCH   1   2
ATOM      2  C   UNL     1       4.643  -1.478  -0.357  0.00  0.00    +0.000 A 
ATOM      3  C   UNL     1       5.345  -2.677  -0.253  0.00  0.00    +0.000 A 
ATOM      4  C   UNL     1       6.720  -2.654  -0.095  0.00  0.00    +0.000 A 
ATOM      5  C   UNL     1       7.433  -1.437  -0.084  0.00  0.00    +0.000 A 
ATOM      6  C   UNL     1       6.710  -0.251  -0.206  0.00  0.00    +0.000 A 
ATOM      7  C   UNL     1       5.356  -0.277  -0.409  0.00  0.00    +0.000 A 
BRANCH   5   8
ATOM      8  C   UNL     1       8.954  -1.415  -0.051  0.00  0.00    +0.000 C 
ATOM      9  C   UNL     1       9.464  -2.089   1.231  0.00  0.00    +0.000 C 
ATOM     10  C   UNL     1       9.458  -2.171  -1.295  0.00  0.00    +0.000 C 
ATOM     11  C   UNL     1       9.525   0.021  -0.108  0.00  0.00    +0.000 C 
ENDBRANCH   5   8
ENDBRANCH   1   2
BRANCH   1  13
ATOM     12  C   UNL     1       0.980  -0.384  -0.208  0.00  0.00    +0.000 C 
ATOM     13  C   UNL     1       2.495  -0.143  -0.032  0.00  0.00    +0.000 C 
BRANCH  13  14
ATOM     14  C   UNL     1       2.946   0.432   1.378  0.00  0.00    +0.000 C 
BRANCH  14  15
ATOM     15  N   UNL     1       2.580   1.834   1.699  0.00  0.00    +0.000 NA
ATOM     16  C   UNL     1       3.613   2.818   1.336  0.00  0.00    +0.000 C 
ATOM     17  C   UNL     1       3.119   4.240   1.660  0.00  0.00    +0.000 C 
ATOM     18  C   UNL     1       1.811   4.571   0.943  0.00  0.00    +0.000 C 
ATOM     19  C   UNL     1       0.758   3.537   1.277  0.00  0.00    +0.000 C 
ATOM     20  C   UNL     1       1.322   2.164   1.053  0.00  0.00    +0.000 C 
ENDBRANCH  14  15
ENDBRANCH  13  14
ENDBRANCH   1  13
TORSDOF 5
