REMARK  Name = Fentanyl
REMARK  7 active torsions:
REMARK  status: ('A' for Active; 'I' for Inactive)
REMARK    1  A    between atoms: C_1  and  C_2
REMARK    2  A    between atoms: C_2  and  C_3
REMARK    3  A    between atoms: N_5  and  C_6
REMARK    4  A    between atoms: N_5  and  C_20
REMARK    5  A    between atoms: N_9  and  C_10
REMARK    6  A    between atoms: C_10  and  C_11
REMARK    7  A    between atoms: C_11  and  C_12
REMARK                            x       y       z     vdW  Elec       q    Type
REMARK                         _______ _______ _______ _____ _____    ______ ____
ROOT
ATOM      1  C   UNL     1       5.412  -0.617   0.236  0.00  0.00    +0.000 C 
ATOM      2  C   UNL     1       5.944   0.071   1.493  0.00  0.00    +0.000 C 
ATOM      3  C   UNL     1       5.152   1.278   1.877  0.00  0.00    +0.000 C 
ATOM      4  N   UNL     1       5.214   2.265   0.809  0.00  0.00    +0.000 NA
ATOM      5  C   UNL     1       4.653   1.765  -0.448  0.00  0.00    +0.000 C 
ATOM      6  C   UNL     1       5.241   0.429  -0.885  0.00  0.00    +0.000 C 
ENDROOT
BRANCH   1   9
ATOM      7  C   UNL     1       2.950  -1.511   0.511  0.00  0.00    +0.000 C 
ATOM      8  O   UNL     1       2.156  -2.379   0.909  0.00  0.00    +0.000 OA
ATOM      9  N   UNL     1       4.352  -1.643   0.562  0.00  0.00    +0.000 N 
BRANCH   9  10
ATOM     10  C   UNL     1       4.906  -2.908   1.060  0.00  0.00    +0.000 A 
ATOM     11  C   UNL     1       6.083  -2.986   1.835  0.00  0.00    +0.000 A 
ATOM     12  C   UNL     1       6.700  -4.189   2.161  0.00  0.00    +0.000 A 
ATOM     13  C   UNL     1       6.122  -5.374   1.757  0.00  0.00    +0.000 A 
ATOM     14  C   UNL     1       4.938  -5.340   1.024  0.00  0.00    +0.000 A 
ATOM     15  C   UNL     1       4.334  -4.124   0.683  0.00  0.00    +0.000 A 
ENDBRANCH   9  10
BRANCH   7  17
ATOM     16  C   UNL     1       0.856  -0.139  -0.062  0.00  0.00    +0.000 C 
ATOM     17  C   UNL     1       2.367  -0.221   0.002  0.00  0.00    +0.000 C 
ENDBRANCH   7  17
ENDBRANCH   1   9
BRANCH   4  18
ATOM     18  C   UNL     1       4.450   3.422   1.275  0.00  0.00    +0.000 C 
BRANCH  18  19
ATOM     19  C   UNL     1       4.402   4.534   0.231  0.00  0.00    +0.000 C 
BRANCH  19  20
ATOM     20  C   UNL     1       3.683   5.742   0.742  0.00  0.00    +0.000 A 
ATOM     21  C   UNL     1       4.107   6.998   0.307  0.00  0.00    +0.000 A 
ATOM     22  C   UNL     1       3.571   8.138   0.890  0.00  0.00    +0.000 A 
ATOM     23  C   UNL     1       2.549   8.028   1.833  0.00  0.00    +0.000 A 
ATOM     24  C   UNL     1       2.064   6.780   2.205  0.00  0.00    +0.000 A 
ATOM     25  C   UNL     1       2.620   5.640   1.650  0.00  0.00    +0.000 A 
ENDBRANCH  19  20
ENDBRANCH  18  19
ENDBRANCH   4  18
TORSDOF 6
