REMARK  Name = Ferric chloride
REMARK  0 active torsions:
REMARK  status: ('A' for Active; 'I' for Inactive)
REMARK                            x       y       z     vdW  Elec       q    Type
REMARK                         _______ _______ _______ _____ _____    ______ ____
ROOT
ATOM      1 CL   UNL     1       1.055   0.077  -0.033  0.00  0.00    +0.000 Cl
ATOM      2 FE   UNL     1       3.395   0.077  -0.033  0.00  0.00    +0.000 Fe
ATOM      3 CL   UNL     1       4.565   1.703  -1.241  0.00  0.00    +0.000 Cl
ATOM      4 CL   UNL     1       4.565  -1.550   1.176  0.00  0.00    +0.000 Cl
ENDROOT
TORSDOF 0
