REMARK  Name = Ferrous gluconate
REMARK  20 active torsions:
REMARK  status: ('A' for Active; 'I' for Inactive)
REMARK    1  A    between atoms: C_3  and  O_4
REMARK    2  A    between atoms: C_3  and  C_5
REMARK    3  A    between atoms: C_3  and  C_7
REMARK    4  A    between atoms: C_5  and  O_6
REMARK    5  A    between atoms: C_7  and  O_9
REMARK    6  A    between atoms: C_7  and  C_10
REMARK    7  A    between atoms: C_10  and  O_12
REMARK    8  A    between atoms: C_10  and  C_13
REMARK    9  A    between atoms: C_13  and  O_15
REMARK   10  A    between atoms: C_13  and  C_16
REMARK   11  A    between atoms: C_20  and  O_21
REMARK   12  A    between atoms: C_20  and  C_22
REMARK   13  A    between atoms: C_20  and  C_24
REMARK   14  A    between atoms: C_22  and  O_23
REMARK   15  A    between atoms: C_24  and  O_26
REMARK   16  A    between atoms: C_24  and  C_27
REMARK   17  A    between atoms: C_27  and  O_29
REMARK   18  A    between atoms: C_27  and  C_30
REMARK   19  A    between atoms: C_30  and  O_32
REMARK   20  A    between atoms: C_30  and  C_33
REMARK                            x       y       z     vdW  Elec       q    Type
REMARK                         _______ _______ _______ _____ _____    ______ ____
ROOT
ATOM      1 FE   UNL     1       2.187   0.135   0.313  0.00  0.00    +0.000 Fe
ENDROOT
TORSDOF 0
REMARK  Name = Ferrous gluconate
REMARK  20 active torsions:
REMARK  status: ('A' for Active; 'I' for Inactive)
REMARK    1  A    between atoms: C_3  and  O_4
REMARK    2  A    between atoms: C_3  and  C_5
REMARK    3  A    between atoms: C_3  and  C_7
REMARK    4  A    between atoms: C_5  and  O_6
REMARK    5  A    between atoms: C_7  and  O_9
REMARK    6  A    between atoms: C_7  and  C_10
REMARK    7  A    between atoms: C_10  and  O_12
REMARK    8  A    between atoms: C_10  and  C_13
REMARK    9  A    between atoms: C_13  and  O_15
REMARK   10  A    between atoms: C_13  and  C_16
REMARK   11  A    between atoms: C_20  and  O_21
REMARK   12  A    between atoms: C_20  and  C_22
REMARK   13  A    between atoms: C_20  and  C_24
REMARK   14  A    between atoms: C_22  and  O_23
REMARK   15  A    between atoms: C_24  and  O_26
REMARK   16  A    between atoms: C_24  and  C_27
REMARK   17  A    between atoms: C_27  and  O_29
REMARK   18  A    between atoms: C_27  and  C_30
REMARK   19  A    between atoms: C_30  and  O_32
REMARK   20  A    between atoms: C_30  and  C_33
REMARK                            x       y       z     vdW  Elec       q    Type
REMARK                         _______ _______ _______ _____ _____    ______ ____
ROOT
ATOM      1  C   UNL     2       4.608   1.645   0.557  0.00  0.00    +0.000 C 
ENDROOT
BRANCH   1   2
ATOM      2  O   UNL     2       3.958   0.528   1.203  0.00  0.00    +0.000 OA
ATOM      3  H   UNL     2       4.672   0.148   1.808  0.00  0.00    +0.000 HD
ENDBRANCH   1   2
BRANCH   1   4
ATOM      4  C   UNL     2       3.881   2.649   1.440  0.00  0.00    +0.000 C 
BRANCH   4   5
ATOM      5  O   UNL     2       2.409   2.285   1.324  0.00  0.00    +0.000 OA
ATOM      6  H   UNL     2       2.021   2.961   1.933  0.00  0.00    +0.000 HD
ENDBRANCH   4   5
BRANCH   4   7
ATOM      7  C   UNL     2       4.065   4.026   0.927  0.00  0.00    +0.000 C 
BRANCH   7   8
ATOM      8  O   UNL     2       3.352   4.928   1.737  0.00  0.00    +0.000 OA
ATOM      9  H   UNL     2       2.508   5.055   1.268  0.00  0.00    +0.000 HD
ENDBRANCH   7   8
ENDBRANCH   4   7
ENDBRANCH   1   4
BRANCH   1  10
ATOM     10  C   UNL     2       4.200   1.870  -1.067  0.00  0.00    +0.000 C 
BRANCH  10  11
ATOM     11  O   UNL     2       4.078   1.121  -2.263  0.00  0.00    +0.000 OA
ATOM     12  H   UNL     2       4.572   0.400  -2.665  0.00  0.00    +0.000 HD
ENDBRANCH  10  11
BRANCH  10  13
ATOM     13  C   UNL     2       4.855   2.979  -1.835  0.00  0.00    +0.000 C 
BRANCH  13  14
ATOM     14  C   UNL     2       6.378   2.833  -1.703  0.00  0.00    +0.000 C 
ATOM     15  O   UNL     2       6.790   1.943  -0.959  0.00  0.00    +0.000 OA
ATOM     16  O   UNL     2       7.046   3.588  -2.524  0.00  0.00    +0.000 OA
ENDBRANCH  13  14
BRANCH  13  17
ATOM     17  O   UNL     2       4.174   4.220  -1.721  0.00  0.00    +0.000 OA
ATOM     18  H   UNL     2       3.250   3.994  -1.935  0.00  0.00    +0.000 HD
ENDBRANCH  13  17
ENDBRANCH  10  13
ENDBRANCH   1  10
TORSDOF 10
REMARK  Name = Ferrous gluconate
REMARK  20 active torsions:
REMARK  status: ('A' for Active; 'I' for Inactive)
REMARK    1  A    between atoms: C_3  and  O_4
REMARK    2  A    between atoms: C_3  and  C_5
REMARK    3  A    between atoms: C_3  and  C_7
REMARK    4  A    between atoms: C_5  and  O_6
REMARK    5  A    between atoms: C_7  and  O_9
REMARK    6  A    between atoms: C_7  and  C_10
REMARK    7  A    between atoms: C_10  and  O_12
REMARK    8  A    between atoms: C_10  and  C_13
REMARK    9  A    between atoms: C_13  and  O_15
REMARK   10  A    between atoms: C_13  and  C_16
REMARK   11  A    between atoms: C_20  and  O_21
REMARK   12  A    between atoms: C_20  and  C_22
REMARK   13  A    between atoms: C_20  and  C_24
REMARK   14  A    between atoms: C_22  and  O_23
REMARK   15  A    between atoms: C_24  and  O_26
REMARK   16  A    between atoms: C_24  and  C_27
REMARK   17  A    between atoms: C_27  and  O_29
REMARK   18  A    between atoms: C_27  and  C_30
REMARK   19  A    between atoms: C_30  and  O_32
REMARK   20  A    between atoms: C_30  and  C_33
REMARK                            x       y       z     vdW  Elec       q    Type
REMARK                         _______ _______ _______ _____ _____    ______ ____
ROOT
ATOM      1  C   UNL     3       4.648  -0.997  -1.211  0.00  0.00    +0.000 C 
ENDROOT
BRANCH   1   2
ATOM      2  O   UNL     3       3.138  -0.612  -1.616  0.00  0.00    +0.000 OA
ATOM      3  H   UNL     3       3.106  -0.025  -2.425  0.00  0.00    +0.000 HD
ENDBRANCH   1   2
BRANCH   1   4
ATOM      4  C   UNL     3       5.779  -1.115  -2.392  0.00  0.00    +0.000 C 
BRANCH   4   5
ATOM      5  O   UNL     3       5.269  -1.966  -3.408  0.00  0.00    +0.000 OA
ATOM      6  H   UNL     3       6.033  -2.491  -3.719  0.00  0.00    +0.000 HD
ENDBRANCH   4   5
BRANCH   4   7
ATOM      7  C   UNL     3       7.254  -1.254  -1.964  0.00  0.00    +0.000 C 
BRANCH   7   8
ATOM      8  O   UNL     3       8.044  -1.559  -3.113  0.00  0.00    +0.000 OA
ATOM      9  H   UNL     3       8.074  -2.535  -3.102  0.00  0.00    +0.000 HD
ENDBRANCH   7   8
ENDBRANCH   4   7
ENDBRANCH   1   4
BRANCH   1  10
ATOM     10  C   UNL     3       4.184  -2.017  -0.177  0.00  0.00    +0.000 C 
BRANCH  10  11
ATOM     11  O   UNL     3       4.153  -1.595   1.189  0.00  0.00    +0.000 OA
ATOM     12  H   UNL     3       4.454  -2.339   1.750  0.00  0.00    +0.000 HD
ENDBRANCH  10  11
BRANCH  10  13
ATOM     13  C   UNL     3       4.581  -3.405  -0.464  0.00  0.00    +0.000 C 
BRANCH  13  14
ATOM     14  C   UNL     3       6.099  -3.437  -0.231  0.00  0.00    +0.000 C 
ATOM     15  O   UNL     3       6.513  -2.612   0.639  0.00  0.00    +0.000 OA
ATOM     16  O   UNL     3       6.757  -4.222  -0.967  0.00  0.00    +0.000 OA
ENDBRANCH  13  14
BRANCH  13  17
ATOM     17  O   UNL     3       4.107  -3.747  -1.780  0.00  0.00    +0.000 OA
ATOM     18  H   UNL     3       3.449  -3.106  -2.106  0.00  0.00    +0.000 HD
ENDBRANCH  13  17
ENDBRANCH  10  13
ENDBRANCH   1  10
TORSDOF 10
