REMARK  Name = Ferrous glycine sulfate
REMARK  6 active torsions:
REMARK  status: ('A' for Active; 'I' for Inactive)
REMARK    1  A    between atoms: N_2  and  CA_3
REMARK    2  A    between atoms: CA_3  and  C_4
REMARK    3  A    between atoms: N_7  and  CA_8
REMARK    4  A    between atoms: CA_8  and  C_9
REMARK    5  A    between atoms: O_12  and  S_13
REMARK    6  A    between atoms: S_13  and  O_14
REMARK                            x       y       z     vdW  Elec       q    Type
REMARK                         _______ _______ _______ _____ _____    ______ ____
ROOT
ATOM      1 FE   UNL     1       1.007   2.141  -1.068  0.00  0.00    +0.000 Fe
ENDROOT
TORSDOF 0
REMARK  Name = Ferrous glycine sulfate
REMARK  6 active torsions:
REMARK  status: ('A' for Active; 'I' for Inactive)
REMARK    1  A    between atoms: N_2  and  CA_3
REMARK    2  A    between atoms: CA_3  and  C_4
REMARK    3  A    between atoms: N_7  and  CA_8
REMARK    4  A    between atoms: CA_8  and  C_9
REMARK    5  A    between atoms: O_12  and  S_13
REMARK    6  A    between atoms: S_13  and  O_14
REMARK                            x       y       z     vdW  Elec       q    Type
REMARK                         _______ _______ _______ _____ _____    ______ ____
ROOT
ATOM      1  CA  GLY A   1       2.491  -1.202   0.250  0.00  0.00    +0.000 C 
ENDROOT
BRANCH   1   2
ATOM      2  N   GLY A   1       0.784  -1.092   0.764  0.00  0.00    +0.000 NA
ATOM      3  H1  GLY A   1       0.796   0.083   1.146  0.00  0.00    +0.000 HD
ATOM      4  H2  GLY A   1       0.318  -1.595   1.483  0.00  0.00    +0.000 HD
ENDBRANCH   1   2
BRANCH   1   5
ATOM      5  C   GLY A   1       2.877  -2.601  -0.464  0.00  0.00    +0.000 C 
ATOM      6  O   GLY A   1       1.832  -3.127  -0.938  0.00  0.00    +0.000 OA
ATOM      7  OXT GLY A   1       4.101  -2.761  -0.695  0.00  0.00    +0.000 OA
ENDBRANCH   1   5
TORSDOF 2
REMARK  Name = Ferrous glycine sulfate
REMARK  6 active torsions:
REMARK  status: ('A' for Active; 'I' for Inactive)
REMARK    1  A    between atoms: N_2  and  CA_3
REMARK    2  A    between atoms: CA_3  and  C_4
REMARK    3  A    between atoms: N_7  and  CA_8
REMARK    4  A    between atoms: CA_8  and  C_9
REMARK    5  A    between atoms: O_12  and  S_13
REMARK    6  A    between atoms: S_13  and  O_14
REMARK                            x       y       z     vdW  Elec       q    Type
REMARK                         _______ _______ _______ _____ _____    ______ ____
ROOT
ATOM      1  CA  GLY B   1       2.019   0.473   0.358  0.00  0.00    +0.000 C 
ENDROOT
BRANCH   1   2
ATOM      2  N   GLY B   1       0.124   0.791   0.332  0.00  0.00    +0.000 NA
ATOM      3  H1  GLY B   1      -0.328   0.335   1.474  0.00  0.00    +0.000 HD
ATOM      4  H2  GLY B   1      -0.015  -0.477  -0.008  0.00  0.00    +0.000 HD
ENDBRANCH   1   2
BRANCH   1   5
ATOM      5  C   GLY B   1       2.614  -0.781  -1.586  0.00  0.00    +0.000 C 
ATOM      6  O   GLY B   1       1.753  -0.983  -2.517  0.00  0.00    +0.000 OA
ATOM      7  OXT GLY B   1       3.916  -0.691  -2.043  0.00  0.00    +0.000 OA
ENDBRANCH   1   5
TORSDOF 2
REMARK  Name = Ferrous glycine sulfate
REMARK  6 active torsions:
REMARK  status: ('A' for Active; 'I' for Inactive)
REMARK    1  A    between atoms: N_2  and  CA_3
REMARK    2  A    between atoms: CA_3  and  C_4
REMARK    3  A    between atoms: N_7  and  CA_8
REMARK    4  A    between atoms: CA_8  and  C_9
REMARK    5  A    between atoms: O_12  and  S_13
REMARK    6  A    between atoms: S_13  and  O_14
REMARK                            x       y       z     vdW  Elec       q    Type
REMARK                         _______ _______ _______ _____ _____    ______ ____
ROOT
ATOM      1  S   UNL     2       3.896   0.549  -0.242  0.00  0.00    +0.000 S 
ATOM      2  O   UNL     2       4.074   1.471   0.878  0.00  0.00    +0.000 OA
ATOM      3  O   UNL     2       4.599  -0.756   0.340  0.00  0.00    +0.000 OA
ENDROOT
BRANCH   1   4
ATOM      4  O   UNL     2       1.734   0.536  -1.131  0.00  0.00    +0.000 OA
ATOM      5  H   UNL     2       0.546   0.295  -0.888  0.00  0.00    +0.000 HD
ENDBRANCH   1   4
BRANCH   1   6
ATOM      6  O   UNL     2       4.187   1.413  -1.543  0.00  0.00    +0.000 OA
ATOM      7  H   UNL     2       3.301   1.735  -1.846  0.00  0.00    +0.000 HD
ENDBRANCH   1   6
TORSDOF 2
