REMARK  Name = Ferric maltol
REMARK  3 active torsions:
REMARK  status: ('A' for Active; 'I' for Inactive)
REMARK    1  A    between atoms: C_2  and  C_3
REMARK    2  A    between atoms: C_11  and  C_12
REMARK    3  A    between atoms: C_20  and  C_21
REMARK                            x       y       z     vdW  Elec       q    Type
REMARK                         _______ _______ _______ _____ _____    ______ ____
ROOT
ATOM      1 FE   UNL     1       0.284   1.760  -2.034  0.00  0.00    +0.000 Fe
ENDROOT
TORSDOF 0
REMARK  Name = Ferric maltol
REMARK  3 active torsions:
REMARK  status: ('A' for Active; 'I' for Inactive)
REMARK    1  A    between atoms: C_2  and  C_3
REMARK    2  A    between atoms: C_11  and  C_12
REMARK    3  A    between atoms: C_20  and  C_21
REMARK                            x       y       z     vdW  Elec       q    Type
REMARK                         _______ _______ _______ _____ _____    ______ ____
ROOT
ATOM      1  C   UNL     2       0.063   0.997   0.577  0.00  0.00    +0.000 C 
ATOM      2  C   UNL     2       1.726   1.324   0.194  0.00  0.00    +0.000 A 
ATOM      3  C   UNL     2       2.308   2.490   0.016  0.00  0.00    +0.000 A 
ATOM      4  O   UNL     2       1.629   3.628  -0.051  0.00  0.00    +0.000 OA
ATOM      5  C   UNL     2       3.924   2.509  -0.313  0.00  0.00    +0.000 A 
ATOM      6  O   UNL     2       4.587   3.504  -0.570  0.00  0.00    +0.000 OA
ATOM      7  C   UNL     2       4.607   1.198  -0.463  0.00  0.00    +0.000 A 
ATOM      8  C   UNL     2       3.889   0.155  -0.067  0.00  0.00    +0.000 A 
ATOM      9  O   UNL     2       2.550   0.195   0.095  0.00  0.00    +0.000 OA
ENDROOT
TORSDOF 0
REMARK  Name = Ferric maltol
REMARK  3 active torsions:
REMARK  status: ('A' for Active; 'I' for Inactive)
REMARK    1  A    between atoms: C_2  and  C_3
REMARK    2  A    between atoms: C_11  and  C_12
REMARK    3  A    between atoms: C_20  and  C_21
REMARK                            x       y       z     vdW  Elec       q    Type
REMARK                         _______ _______ _______ _____ _____    ______ ____
ROOT
ATOM      1  C   UNL     3       0.693  -1.426  -1.106  0.00  0.00    +0.000 C 
ATOM      2  C   UNL     3       2.016  -1.171  -1.830  0.00  0.00    +0.000 A 
ATOM      3  C   UNL     3       2.412   0.002  -2.461  0.00  0.00    +0.000 A 
ATOM      4  O   UNL     3       1.787   1.071  -2.744  0.00  0.00    +0.000 OA
ATOM      5  C   UNL     3       3.975   0.114  -2.722  0.00  0.00    +0.000 A 
ATOM      6  O   UNL     3       4.478   1.204  -3.022  0.00  0.00    +0.000 OA
ATOM      7  C   UNL     3       4.817  -1.077  -2.300  0.00  0.00    +0.000 A 
ATOM      8  C   UNL     3       4.210  -2.122  -1.722  0.00  0.00    +0.000 A 
ATOM      9  O   UNL     3       2.861  -2.221  -1.522  0.00  0.00    +0.000 OA
ENDROOT
TORSDOF 0
REMARK  Name = Ferric maltol
REMARK  3 active torsions:
REMARK  status: ('A' for Active; 'I' for Inactive)
REMARK    1  A    between atoms: C_2  and  C_3
REMARK    2  A    between atoms: C_11  and  C_12
REMARK    3  A    between atoms: C_20  and  C_21
REMARK                            x       y       z     vdW  Elec       q    Type
REMARK                         _______ _______ _______ _____ _____    ______ ____
ROOT
ATOM      1  C   UNL     4       2.008  -0.300   2.328  0.00  0.00    +0.000 C 
ATOM      2  C   UNL     4       3.734  -0.019   2.472  0.00  0.00    +0.000 A 
ATOM      3  C   UNL     4       4.324   1.241   2.494  0.00  0.00    +0.000 A 
ATOM      4  O   UNL     4       3.794   2.353   2.780  0.00  0.00    +0.000 OA
ATOM      5  C   UNL     4       5.857   1.381   1.786  0.00  0.00    +0.000 A 
ATOM      6  O   UNL     4       6.391   2.397   1.318  0.00  0.00    +0.000 OA
ATOM      7  C   UNL     4       6.486   0.119   1.315  0.00  0.00    +0.000 A 
ATOM      8  C   UNL     4       5.857  -1.018   1.621  0.00  0.00    +0.000 A 
ATOM      9  O   UNL     4       4.588  -1.156   2.243  0.00  0.00    +0.000 OA
ENDROOT
TORSDOF 0
