REMARK  Name = Ferric glycerophosphate
REMARK  14 active torsions:
REMARK  status: ('A' for Active; 'I' for Inactive)
REMARK    1  A    between atoms: O_3  and  C_4
REMARK    2  A    between atoms: C_4  and  C_5
REMARK    3  A    between atoms: C_5  and  O_6
REMARK    4  A    between atoms: C_5  and  C_7
REMARK    5  A    between atoms: C_7  and  O_8
REMARK    6  A    between atoms: O_8  and  P_9
REMARK    7  A    between atoms: O_13  and  C_14
REMARK    8  A    between atoms: C_14  and  C_15
REMARK    9  A    between atoms: C_15  and  C_16
REMARK   10  A    between atoms: C_16  and  C_17
REMARK   11  A    between atoms: C_16  and  O_20
REMARK   12  A    between atoms: C_17  and  C_18
REMARK   13  A    between atoms: C_18  and  O_19
REMARK   14  A    between atoms: O_20  and  P_21
REMARK                            x       y       z     vdW  Elec       q    Type
REMARK                         _______ _______ _______ _____ _____    ______ ____
ROOT
ATOM      1 FE   UNL     1      -1.561  -1.001   1.752  0.00  0.00    +0.000 Fe
ENDROOT
TORSDOF 0
REMARK  Name = Ferric glycerophosphate
REMARK  14 active torsions:
REMARK  status: ('A' for Active; 'I' for Inactive)
REMARK    1  A    between atoms: O_3  and  C_4
REMARK    2  A    between atoms: C_4  and  C_5
REMARK    3  A    between atoms: C_5  and  O_6
REMARK    4  A    between atoms: C_5  and  C_7
REMARK    5  A    between atoms: C_7  and  O_8
REMARK    6  A    between atoms: O_8  and  P_9
REMARK    7  A    between atoms: O_13  and  C_14
REMARK    8  A    between atoms: C_14  and  C_15
REMARK    9  A    between atoms: C_15  and  C_16
REMARK   10  A    between atoms: C_16  and  C_17
REMARK   11  A    between atoms: C_16  and  O_20
REMARK   12  A    between atoms: C_17  and  C_18
REMARK   13  A    between atoms: C_18  and  O_19
REMARK   14  A    between atoms: O_20  and  P_21
REMARK                            x       y       z     vdW  Elec       q    Type
REMARK                         _______ _______ _______ _____ _____    ______ ____
ROOT
ATOM      1 FE   UNL     2       0.455   3.345   0.419  0.00  0.00    +0.000 Fe
ENDROOT
TORSDOF 0
REMARK  Name = Ferric glycerophosphate
REMARK  14 active torsions:
REMARK  status: ('A' for Active; 'I' for Inactive)
REMARK    1  A    between atoms: O_3  and  C_4
REMARK    2  A    between atoms: C_4  and  C_5
REMARK    3  A    between atoms: C_5  and  O_6
REMARK    4  A    between atoms: C_5  and  C_7
REMARK    5  A    between atoms: C_7  and  O_8
REMARK    6  A    between atoms: O_8  and  P_9
REMARK    7  A    between atoms: O_13  and  C_14
REMARK    8  A    between atoms: C_14  and  C_15
REMARK    9  A    between atoms: C_15  and  C_16
REMARK   10  A    between atoms: C_16  and  C_17
REMARK   11  A    between atoms: C_16  and  O_20
REMARK   12  A    between atoms: C_17  and  C_18
REMARK   13  A    between atoms: C_18  and  O_19
REMARK   14  A    between atoms: O_20  and  P_21
REMARK                            x       y       z     vdW  Elec       q    Type
REMARK                         _______ _______ _______ _____ _____    ______ ____
ROOT
ATOM      1  C   UNL     3       2.227   1.480   1.081  0.00  0.00    +0.000 C 
ENDROOT
BRANCH   1   2
ATOM      2  O   UNL     3       1.815   1.824   2.382  0.00  0.00    +0.000 OA
ATOM      3  H   UNL     3       2.498   1.291   2.933  0.00  0.00    +0.000 HD
ENDBRANCH   1   2
BRANCH   1   4
ATOM      4  C   UNL     3       1.586   0.030   1.090  0.00  0.00    +0.000 C 
BRANCH   4   5
ATOM      5  O   UNL     3       0.123  -0.164   0.803  0.00  0.00    +0.000 OA
ATOM      6  H   UNL     3       0.252  -0.779  -0.018  0.00  0.00    +0.000 HD
ENDBRANCH   4   5
ENDBRANCH   1   4
BRANCH   1   7
ATOM      7  C   UNL     3       3.684   1.912   0.735  0.00  0.00    +0.000 C 
BRANCH   7   8
ATOM      8  O   UNL     3       4.859   2.436   1.240  0.00  0.00    +0.000 OA
BRANCH   8   9
ATOM      9  P   UNL     3       6.589   2.436   1.240  0.00  0.00    +0.000 P 
ATOM     10  O   UNL     3       6.344   2.951  -0.221  0.00  0.00    +0.000 OA
ATOM     11  O   UNL     3       6.321   3.486   2.355  0.00  0.00    +0.000 OA
ATOM     12  O   UNL     3       8.137   2.436   1.240  0.00  0.00    +0.000 OA
ENDBRANCH   8   9
ENDBRANCH   7   8
ENDBRANCH   1   7
TORSDOF 6
REMARK  Name = Ferric glycerophosphate
REMARK  14 active torsions:
REMARK  status: ('A' for Active; 'I' for Inactive)
REMARK    1  A    between atoms: O_3  and  C_4
REMARK    2  A    between atoms: C_4  and  C_5
REMARK    3  A    between atoms: C_5  and  O_6
REMARK    4  A    between atoms: C_5  and  C_7
REMARK    5  A    between atoms: C_7  and  O_8
REMARK    6  A    between atoms: O_8  and  P_9
REMARK    7  A    between atoms: O_13  and  C_14
REMARK    8  A    between atoms: C_14  and  C_15
REMARK    9  A    between atoms: C_15  and  C_16
REMARK   10  A    between atoms: C_16  and  C_17
REMARK   11  A    between atoms: C_16  and  O_20
REMARK   12  A    between atoms: C_17  and  C_18
REMARK   13  A    between atoms: C_18  and  O_19
REMARK   14  A    between atoms: O_20  and  P_21
REMARK                            x       y       z     vdW  Elec       q    Type
REMARK                         _______ _______ _______ _____ _____    ______ ____
ROOT
ATOM      1  C   UNL     4       4.748  -1.597   0.183  0.00  0.00    +0.000 C 
ENDROOT
BRANCH   1   2
ATOM      2  C   UNL     4       3.330  -1.679  -0.315  0.00  0.00    +0.000 C 
BRANCH   2   3
ATOM      3  C   UNL     4       2.830  -0.443  -1.365  0.00  0.00    +0.000 C 
BRANCH   3   4
ATOM      4  O   UNL     4       1.354  -0.190  -1.560  0.00  0.00    +0.000 OA
ATOM      5  H   UNL     4       1.294   0.670  -2.033  0.00  0.00    +0.000 HD
ENDBRANCH   3   4
ENDBRANCH   2   3
ENDBRANCH   1   2
BRANCH   1   6
ATOM      6  C   UNL     4       5.081  -0.764   1.326  0.00  0.00    +0.000 C 
BRANCH   6   7
ATOM      7  C   UNL     4       5.535   0.482   0.857  0.00  0.00    +0.000 C 
BRANCH   7   8
ATOM      8  O   UNL     4       5.423   0.874   2.453  0.00  0.00    +0.000 OA
ATOM      9  H   UNL     4       5.306   1.848   2.620  0.00  0.00    +0.000 HD
ENDBRANCH   7   8
ENDBRANCH   6   7
ENDBRANCH   1   6
BRANCH   1  10
ATOM     10  O   UNL     4       4.951  -2.447   1.230  0.00  0.00    +0.000 OA
BRANCH  10  11
ATOM     11  P   UNL     4       6.681  -2.447   1.230  0.00  0.00    +0.000 P 
ATOM     12  O   UNL     4       6.577  -2.161   2.773  0.00  0.00    +0.000 OA
ATOM     13  O   UNL     4       6.487  -3.976   0.997  0.00  0.00    +0.000 OA
ATOM     14  O   UNL     4       8.229  -2.447   1.230  0.00  0.00    +0.000 OA
ENDBRANCH  10  11
ENDBRANCH   1  10
TORSDOF 8
