REMARK  Name = Ferrous ascorbate
REMARK  10 active torsions:
REMARK  status: ('A' for Active; 'I' for Inactive)
REMARK    1  A    between atoms: C_3  and  O_4
REMARK    2  A    between atoms: C_3  and  C_5
REMARK    3  A    between atoms: C_3  and  C_7
REMARK    4  A    between atoms: C_5  and  O_6
REMARK    5  A    between atoms: C_12  and  O_13
REMARK    6  A    between atoms: C_14  and  O_15
REMARK    7  A    between atoms: C_17  and  O_18
REMARK    8  A    between atoms: C_17  and  C_19
REMARK    9  A    between atoms: C_17  and  C_21
REMARK   10  A    between atoms: C_19  and  O_20
REMARK                            x       y       z     vdW  Elec       q    Type
REMARK                         _______ _______ _______ _____ _____    ______ ____
ROOT
ATOM      1 FE   UNL     1       0.325   2.966  -0.966  0.00  0.00    +0.000 Fe
ENDROOT
TORSDOF 0
REMARK  Name = Ferrous ascorbate
REMARK  10 active torsions:
REMARK  status: ('A' for Active; 'I' for Inactive)
REMARK    1  A    between atoms: C_3  and  O_4
REMARK    2  A    between atoms: C_3  and  C_5
REMARK    3  A    between atoms: C_3  and  C_7
REMARK    4  A    between atoms: C_5  and  O_6
REMARK    5  A    between atoms: C_12  and  O_13
REMARK    6  A    between atoms: C_14  and  O_15
REMARK    7  A    between atoms: C_17  and  O_18
REMARK    8  A    between atoms: C_17  and  C_19
REMARK    9  A    between atoms: C_17  and  C_21
REMARK   10  A    between atoms: C_19  and  O_20
REMARK                            x       y       z     vdW  Elec       q    Type
REMARK                         _______ _______ _______ _____ _____    ______ ____
ROOT
ATOM      1  C   UNL     2       2.848  -1.927  -1.050  0.00  0.00    +0.000 C 
ATOM      2  O   UNL     2       3.015  -3.217  -0.587  0.00  0.00    +0.000 OA
ATOM      3  C   UNL     2       2.077  -3.957  -1.173  0.00  0.00    +0.000 C 
ATOM      4  O   UNL     2       2.055  -5.176  -0.977  0.00  0.00    +0.000 OA
ATOM      5  C   UNL     2       1.132  -3.300  -2.094  0.00  0.00    +0.000 C 
ATOM      6  C   UNL     2       1.457  -1.995  -2.111  0.00  0.00    +0.000 C 
ENDROOT
BRANCH   5   7
ATOM      7  O   UNL     2       0.198  -3.887  -2.852  0.00  0.00    +0.000 OA
ATOM      8  H   UNL     2       0.478  -4.823  -2.784  0.00  0.00    +0.000 HD
ENDBRANCH   5   7
BRANCH   6   9
ATOM      9  O   UNL     2       0.624  -0.938  -2.641  0.00  0.00    +0.000 OA
ATOM     10  H   UNL     2       0.206  -1.097  -3.520  0.00  0.00    +0.000 HD
ENDBRANCH   6   9
BRANCH   1  11
ATOM     11  C   UNL     2       2.573  -1.194   0.208  0.00  0.00    +0.000 C 
BRANCH  11  12
ATOM     12  O   UNL     2       1.135  -1.231  -0.064  0.00  0.00    +0.000 OA
ATOM     13  H   UNL     2       0.464  -1.602   0.502  0.00  0.00    +0.000 HD
ENDBRANCH  11  12
BRANCH  11  14
ATOM     14  C   UNL     2       2.984  -1.134   1.724  0.00  0.00    +0.000 C 
BRANCH  14  15
ATOM     15  O   UNL     2       2.158  -0.324   2.627  0.00  0.00    +0.000 OA
ATOM     16  H   UNL     2       2.600   0.446   3.056  0.00  0.00    +0.000 HD
ENDBRANCH  14  15
ENDBRANCH  11  14
ENDBRANCH   1  11
TORSDOF 6
REMARK  Name = Ferrous ascorbate
REMARK  10 active torsions:
REMARK  status: ('A' for Active; 'I' for Inactive)
REMARK    1  A    between atoms: C_3  and  O_4
REMARK    2  A    between atoms: C_3  and  C_5
REMARK    3  A    between atoms: C_3  and  C_7
REMARK    4  A    between atoms: C_5  and  O_6
REMARK    5  A    between atoms: C_12  and  O_13
REMARK    6  A    between atoms: C_14  and  O_15
REMARK    7  A    between atoms: C_17  and  O_18
REMARK    8  A    between atoms: C_17  and  C_19
REMARK    9  A    between atoms: C_17  and  C_21
REMARK   10  A    between atoms: C_19  and  O_20
REMARK                            x       y       z     vdW  Elec       q    Type
REMARK                         _______ _______ _______ _____ _____    ______ ____
ROOT
ATOM      1  C   UNL     3       2.562   1.861   0.809  0.00  0.00    +0.000 C 
ATOM      2  O   UNL     3       3.894   1.847   0.322  0.00  0.00    +0.000 OA
ATOM      3  C   UNL     3       3.968   2.807  -0.645  0.00  0.00    +0.000 C 
ATOM      4  O   UNL     3       4.798   2.788  -1.535  0.00  0.00    +0.000 OA
ATOM      5  C   UNL     3       2.654   3.603  -0.559  0.00  0.00    +0.000 C 
ATOM      6  O   UNL     3       2.206   4.317  -1.485  0.00  0.00    +0.000 OA
ATOM      7  C   UNL     3       1.967   3.145   0.495  0.00  0.00    +0.000 C 
ATOM      8  O   UNL     3       0.803   3.339   0.952  0.00  0.00    +0.000 OA
ENDROOT
BRANCH   1   9
ATOM      9  C   UNL     3       1.586   0.904  -0.100  0.00  0.00    +0.000 C 
BRANCH   9  10
ATOM     10  O   UNL     3       0.081   1.049  -0.184  0.00  0.00    +0.000 OA
ATOM     11  H   UNL     3      -0.287   0.114  -0.196  0.00  0.00    +0.000 HD
ENDBRANCH   9  10
BRANCH   9  12
ATOM     12  C   UNL     3       2.398   0.618  -1.799  0.00  0.00    +0.000 C 
BRANCH  12  13
ATOM     13  O   UNL     3       2.833  -0.291  -2.971  0.00  0.00    +0.000 OA
ATOM     14  H   UNL     3       3.025  -1.262  -3.017  0.00  0.00    +0.000 HD
ENDBRANCH  12  13
ENDBRANCH   9  12
ENDBRANCH   1   9
TORSDOF 4
