REMARK  Name = Ferrous bisglycinate
REMARK  4 active torsions:
REMARK  status: ('A' for Active; 'I' for Inactive)
REMARK    1  A    between atoms: N_2  and  CA_3
REMARK    2  A    between atoms: CA_3  and  C_4
REMARK    3  A    between atoms: N_7  and  CA_8
REMARK    4  A    between atoms: CA_8  and  C_9
REMARK                            x       y       z     vdW  Elec       q    Type
REMARK                         _______ _______ _______ _____ _____    ______ ____
ROOT
ATOM      1 FE   UNL     1      -1.069  -0.211  -0.611  0.00  0.00    +0.000 Fe
ENDROOT
TORSDOF 0
REMARK  Name = Ferrous bisglycinate
REMARK  4 active torsions:
REMARK  status: ('A' for Active; 'I' for Inactive)
REMARK    1  A    between atoms: N_2  and  CA_3
REMARK    2  A    between atoms: CA_3  and  C_4
REMARK    3  A    between atoms: N_7  and  CA_8
REMARK    4  A    between atoms: CA_8  and  C_9
REMARK                            x       y       z     vdW  Elec       q    Type
REMARK                         _______ _______ _______ _____ _____    ______ ____
ROOT
ATOM      1  CA  GLY A   1       3.229  -0.136  -1.090  0.00  0.00    +0.000 C 
ENDROOT
BRANCH   1   2
ATOM      2  N   GLY A   1       1.672   0.443  -1.275  0.00  0.00    +0.000 NA
ATOM      3  H1  GLY A   1       1.917   1.460  -1.349  0.00  0.00    +0.000 HD
ATOM      4  H2  GLY A   1       1.339   0.542  -0.337  0.00  0.00    +0.000 HD
ENDBRANCH   1   2
BRANCH   1   5
ATOM      5  C   GLY A   1       3.608  -1.655  -0.467  0.00  0.00    +0.000 C 
ATOM      6  O   GLY A   1       2.624  -2.471  -0.400  0.00  0.00    +0.000 OA
ATOM      7  OXT GLY A   1       4.813  -1.804  -0.121  0.00  0.00    +0.000 OA
ENDBRANCH   1   5
TORSDOF 2
REMARK  Name = Ferrous bisglycinate
REMARK  4 active torsions:
REMARK  status: ('A' for Active; 'I' for Inactive)
REMARK    1  A    between atoms: N_2  and  CA_3
REMARK    2  A    between atoms: CA_3  and  C_4
REMARK    3  A    between atoms: N_7  and  CA_8
REMARK    4  A    between atoms: CA_8  and  C_9
REMARK                            x       y       z     vdW  Elec       q    Type
REMARK                         _______ _______ _______ _____ _____    ______ ____
ROOT
ATOM      1  CA  GLY B   1       1.834  -0.278   1.525  0.00  0.00    +0.000 C 
ENDROOT
BRANCH   1   2
ATOM      2  N   GLY B   1       0.328  -0.272   1.031  0.00  0.00    +0.000 NA
ATOM      3  H1  GLY B   1       0.657  -0.861   0.232  0.00  0.00    +0.000 HD
ATOM      4  H2  GLY B   1       0.248   0.747   1.147  0.00  0.00    +0.000 HD
ENDBRANCH   1   2
BRANCH   1   5
ATOM      5  C   GLY B   1       2.592   0.450   2.583  0.00  0.00    +0.000 C 
ATOM      6  O   GLY B   1       1.816   1.192   3.286  0.00  0.00    +0.000 OA
ATOM      7  OXT GLY B   1       3.826   0.480   2.411  0.00  0.00    +0.000 OA
ENDBRANCH   1   5
TORSDOF 2
