REMARK  Name = Ferric derisomaltose
REMARK  23 active torsions:
REMARK  status: ('A' for Active; 'I' for Inactive)
REMARK    1  A    between atoms: O_2  and  C_3
REMARK    2  A    between atoms: C_3  and  C_4
REMARK    3  A    between atoms: C_4  and  O_5
REMARK    4  A    between atoms: C_4  and  C_6
REMARK    5  A    between atoms: C_6  and  O_7
REMARK    6  A    between atoms: C_6  and  C_8
REMARK    7  A    between atoms: C_8  and  O_9
REMARK    8  A    between atoms: C_8  and  C_10
REMARK    9  A    between atoms: C_10  and  O_11
REMARK   10  A    between atoms: C_10  and  C_12
REMARK   11  A    between atoms: C_12  and  O_13
REMARK   12  A    between atoms: O_13  and  C_14
REMARK   13  A    between atoms: C_16  and  C_17
REMARK   14  A    between atoms: C_17  and  O_18
REMARK   15  A    between atoms: O_18  and  C_19
REMARK   16  A    between atoms: C_21  and  C_22
REMARK   17  A    between atoms: C_22  and  O_23
REMARK   18  A    between atoms: C_24  and  O_25
REMARK   19  A    between atoms: C_26  and  O_27
REMARK   20  A    between atoms: C_28  and  O_29
REMARK   21  A    between atoms: C_30  and  O_31
REMARK   22  A    between atoms: C_32  and  O_33
REMARK   23  A    between atoms: C_34  and  O_35
REMARK                            x       y       z     vdW  Elec       q    Type
REMARK                         _______ _______ _______ _____ _____    ______ ____
ROOT
ATOM      1 FE   UNL     1       1.265  -0.130   0.110  0.00  0.00    +0.000 Fe
ENDROOT
TORSDOF 0
REMARK  Name = Ferric derisomaltose
REMARK  23 active torsions:
REMARK  status: ('A' for Active; 'I' for Inactive)
REMARK    1  A    between atoms: O_2  and  C_3
REMARK    2  A    between atoms: C_3  and  C_4
REMARK    3  A    between atoms: C_4  and  O_5
REMARK    4  A    between atoms: C_4  and  C_6
REMARK    5  A    between atoms: C_6  and  O_7
REMARK    6  A    between atoms: C_6  and  C_8
REMARK    7  A    between atoms: C_8  and  O_9
REMARK    8  A    between atoms: C_8  and  C_10
REMARK    9  A    between atoms: C_10  and  O_11
REMARK   10  A    between atoms: C_10  and  C_12
REMARK   11  A    between atoms: C_12  and  O_13
REMARK   12  A    between atoms: O_13  and  C_14
REMARK   13  A    between atoms: C_16  and  C_17
REMARK   14  A    between atoms: C_17  and  O_18
REMARK   15  A    between atoms: O_18  and  C_19
REMARK   16  A    between atoms: C_21  and  C_22
REMARK   17  A    between atoms: C_22  and  O_23
REMARK   18  A    between atoms: C_24  and  O_25
REMARK   19  A    between atoms: C_26  and  O_27
REMARK   20  A    between atoms: C_28  and  O_29
REMARK   21  A    between atoms: C_30  and  O_31
REMARK   22  A    between atoms: C_32  and  O_33
REMARK   23  A    between atoms: C_34  and  O_35
REMARK                            x       y       z     vdW  Elec       q    Type
REMARK                         _______ _______ _______ _____ _____    ______ ____
ROOT
ATOM      1  C   UNL     2       8.798  -5.597  -1.970  0.00  0.00    +0.000 C 
ATOM      2  O   UNL     2      10.226  -5.220  -2.227  0.00  0.00    +0.000 OA
ATOM      3  C   UNL     2      10.858  -4.553  -1.120  0.00  0.00    +0.000 C 
ATOM      4  C   UNL     2      10.819  -5.312   0.208  0.00  0.00    +0.000 C 
ATOM      5  C   UNL     2       9.545  -6.175   0.427  0.00  0.00    +0.000 C 
ATOM      6  C   UNL     2       8.919  -6.698  -0.900  0.00  0.00    +0.000 C 
ENDROOT
BRANCH   6   7
ATOM      7  O   UNL     2       7.615  -7.248  -0.675  0.00  0.00    +0.000 OA
ATOM      8  H   UNL     2       7.053  -6.535  -0.370  0.00  0.00    +0.000 HD
ENDBRANCH   6   7
BRANCH   5   9
ATOM      9  O   UNL     2       9.845  -7.256   1.320  0.00  0.00    +0.000 OA
ATOM     10  H   UNL     2      10.540  -7.798   0.918  0.00  0.00    +0.000 HD
ENDBRANCH   5   9
BRANCH   4  11
ATOM     11  O   UNL     2      11.120  -4.451   1.324  0.00  0.00    +0.000 OA
ATOM     12  H   UNL     2      10.319  -3.940   1.573  0.00  0.00    +0.000 HD
ENDBRANCH   4  11
BRANCH   1  13
ATOM     13  O   UNL     2       7.902  -4.520  -1.483  0.00  0.00    +0.000 OA
BRANCH  13  14
ATOM     14  C   UNL     2       6.511  -4.194  -1.632  0.00  0.00    +0.000 C 
BRANCH  14  15
ATOM     15  C   UNL     2       6.026  -2.715  -0.955  0.00  0.00    +0.000 C 
BRANCH  15  16
ATOM     16  O   UNL     2       4.556  -2.730  -0.814  0.00  0.00    +0.000 OA
ATOM     17  H   UNL     2       4.417  -3.535  -0.281  0.00  0.00    +0.000 HD
ENDBRANCH  15  16
BRANCH  15  18
ATOM     18  C   UNL     2       6.583  -2.149   0.420  0.00  0.00    +0.000 C 
BRANCH  18  19
ATOM     19  O   UNL     2       5.748  -0.998   0.792  0.00  0.00    +0.000 OA
ATOM     20  H   UNL     2       6.379  -0.243   0.789  0.00  0.00    +0.000 HD
ENDBRANCH  18  19
BRANCH  18  21
ATOM     21  C   UNL     2       8.052  -1.640   0.512  0.00  0.00    +0.000 C 
BRANCH  21  22
ATOM     22  O   UNL     2       8.462  -1.857   1.896  0.00  0.00    +0.000 OA
ATOM     23  H   UNL     2       8.617  -2.833   1.981  0.00  0.00    +0.000 HD
ENDBRANCH  21  22
BRANCH  21  24
ATOM     24  C   UNL     2       8.933  -2.445  -0.356  0.00  0.00    +0.000 C 
BRANCH  24  25
ATOM     25  O   UNL     2       8.685  -3.684   0.364  0.00  0.00    +0.000 OA
ATOM     26  H   UNL     2       8.069  -4.223  -0.113  0.00  0.00    +0.000 HD
ENDBRANCH  24  25
BRANCH  24  27
ATOM     27  C   UNL     2       8.770  -2.146  -2.007  0.00  0.00    +0.000 C 
BRANCH  27  28
ATOM     28  O   UNL     2       8.999  -3.091  -3.057  0.00  0.00    +0.000 OA
ATOM     29  H   UNL     2       8.224  -3.212  -3.642  0.00  0.00    +0.000 HD
ENDBRANCH  27  28
ENDBRANCH  24  27
ENDBRANCH  21  24
ENDBRANCH  18  21
ENDBRANCH  15  18
ENDBRANCH  14  15
ENDBRANCH  13  14
ENDBRANCH   1  13
BRANCH   3  30
ATOM     30  C   UNL     2      12.120  -3.656  -1.195  0.00  0.00    +0.000 C 
BRANCH  30  31
ATOM     31  O   UNL     2      12.715  -3.722  -2.458  0.00  0.00    +0.000 OA
BRANCH  31  32
ATOM     32  C   UNL     2      13.616  -2.635  -2.646  0.00  0.00    +0.000 C 
ATOM     33  O   UNL     2      14.922  -3.146  -2.821  0.00  0.00    +0.000 OA
ATOM     34  C   UNL     2      15.038  -4.029  -3.945  0.00  0.00    +0.000 C 
ATOM     35  C   UNL     2      14.591  -3.304  -5.227  0.00  0.00    +0.000 C 
ATOM     36  C   UNL     2      13.173  -2.734  -5.092  0.00  0.00    +0.000 C 
ATOM     37  C   UNL     2      13.085  -1.848  -3.847  0.00  0.00    +0.000 C 
BRANCH  37  38
ATOM     38  O   UNL     2      11.715  -1.458  -3.613  0.00  0.00    +0.000 OA
ATOM     39  H   UNL     2      11.201  -2.293  -3.658  0.00  0.00    +0.000 HD
ENDBRANCH  37  38
BRANCH  36  40
ATOM     40  O   UNL     2      12.806  -1.964  -6.246  0.00  0.00    +0.000 OA
ATOM     41  H   UNL     2      13.484  -1.277  -6.374  0.00  0.00    +0.000 HD
ENDBRANCH  36  40
BRANCH  35  42
ATOM     42  O   UNL     2      14.665  -4.145  -6.375  0.00  0.00    +0.000 OA
ATOM     43  H   UNL     2      14.171  -4.967  -6.195  0.00  0.00    +0.000 HD
ENDBRANCH  35  42
BRANCH  34  44
ATOM     44  C   UNL     2      16.505  -4.498  -3.964  0.00  0.00    +0.000 C 
BRANCH  44  45
ATOM     45  O   UNL     2      17.039  -4.754  -5.251  0.00  0.00    +0.000 OA
ATOM     46  H   UNL     2      16.804  -4.016  -5.843  0.00  0.00    +0.000 HD
ENDBRANCH  44  45
ENDBRANCH  34  44
ENDBRANCH  31  32
ENDBRANCH  30  31
ENDBRANCH   3  30
TORSDOF 23
