REMARK  Name = Ferric sulfate
REMARK  0 active torsions:
REMARK  status: ('A' for Active; 'I' for Inactive)
REMARK                            x       y       z     vdW  Elec       q    Type
REMARK                         _______ _______ _______ _____ _____    ______ ____
ROOT
ATOM      1  O   HOH     1      -0.092  -2.441   0.396  0.00  0.00    +0.000 OA
ATOM      2  H   HOH     0       0.838  -2.471  -0.012  0.00  0.00    +0.000 HD
ATOM      3  H   HOH     0      -0.152  -1.558   0.809  0.00  0.00    +0.000 HD
ENDROOT
TORSDOF 0
REMARK  Name = Ferric sulfate
REMARK  0 active torsions:
REMARK  status: ('A' for Active; 'I' for Inactive)
REMARK                            x       y       z     vdW  Elec       q    Type
REMARK                         _______ _______ _______ _____ _____    ______ ____
ROOT
ATOM      1  O   HOH     1       0.131   0.845  -1.295  0.00  0.00    +0.000 OA
ATOM      2  H   HOH     0       0.593  -0.012  -1.111  0.00  0.00    +0.000 HD
ATOM      3  H   HOH     0      -0.182   0.491  -0.218  0.00  0.00    +0.000 HD
ENDROOT
TORSDOF 0
REMARK  Name = Ferric sulfate
REMARK  0 active torsions:
REMARK  status: ('A' for Active; 'I' for Inactive)
REMARK                            x       y       z     vdW  Elec       q    Type
REMARK                         _______ _______ _______ _____ _____    ______ ____
ROOT
ATOM      1  O   HOH     1       0.981   0.485   1.258  0.00  0.00    +0.000 OA
ATOM      2  H   HOH     0       1.744   0.119   0.631  0.00  0.00    +0.000 HD
ATOM      3  H   HOH     0       1.227   0.678   0.151  0.00  0.00    +0.000 HD
ENDROOT
TORSDOF 0
REMARK  Name = Ferric sulfate
REMARK  0 active torsions:
REMARK  status: ('A' for Active; 'I' for Inactive)
REMARK                            x       y       z     vdW  Elec       q    Type
REMARK                         _______ _______ _______ _____ _____    ______ ____
ROOT
ATOM      1  O   HOH     1       0.594  -1.467  -1.500  0.00  0.00    +0.000 OA
ATOM      2  H   HOH     0       1.245  -0.484  -2.032  0.00  0.00    +0.000 HD
ATOM      3  H   HOH     0       0.968  -1.433  -0.087  0.00  0.00    +0.000 HD
ENDROOT
TORSDOF 0
REMARK  Name = Ferric sulfate
REMARK  0 active torsions:
REMARK  status: ('A' for Active; 'I' for Inactive)
REMARK                            x       y       z     vdW  Elec       q    Type
REMARK                         _______ _______ _______ _____ _____    ______ ____
ROOT
ATOM      1  O   HOH     1       1.047   2.335   0.023  0.00  0.00    +0.000 OA
ATOM      2  H   HOH     0       2.106   1.850  -0.238  0.00  0.00    +0.000 HD
ATOM      3  H   HOH     0       0.375   1.719   0.341  0.00  0.00    +0.000 HD
ENDROOT
TORSDOF 0
REMARK  Name = Ferric sulfate
REMARK  0 active torsions:
REMARK  status: ('A' for Active; 'I' for Inactive)
REMARK                            x       y       z     vdW  Elec       q    Type
REMARK                         _______ _______ _______ _____ _____    ______ ____
ROOT
ATOM      1 FE   UNL     1      -1.322   1.496  -1.633  0.00  0.00    +0.000 Fe
ENDROOT
TORSDOF 0
REMARK  Name = Ferric sulfate
REMARK  0 active torsions:
REMARK  status: ('A' for Active; 'I' for Inactive)
REMARK                            x       y       z     vdW  Elec       q    Type
REMARK                         _______ _______ _______ _____ _____    ______ ____
ROOT
ATOM      1 FE   UNL     1       1.970   1.657   1.994  0.00  0.00    +0.000 Fe
ENDROOT
TORSDOF 0
REMARK  Name = Ferric sulfate
REMARK  0 active torsions:
REMARK  status: ('A' for Active; 'I' for Inactive)
REMARK                            x       y       z     vdW  Elec       q    Type
REMARK                         _______ _______ _______ _____ _____    ______ ____
ROOT
ATOM      1  O   UNL     1       1.911  -0.398   2.747  0.00  0.00    +0.000 OA
ATOM      2  S   UNL     1       3.389  -0.532   2.120  0.00  0.00    +0.000 S 
ATOM      3  O   UNL     1       3.401   1.029   2.401  0.00  0.00    +0.000 OA
ATOM      4  O   UNL     1       3.026  -1.908   2.073  0.00  0.00    +0.000 OA
ATOM      5  O   UNL     1       3.810  -0.681   0.775  0.00  0.00    +0.000 OA
ENDROOT
TORSDOF 0
REMARK  Name = Ferric sulfate
REMARK  0 active torsions:
REMARK  status: ('A' for Active; 'I' for Inactive)
REMARK                            x       y       z     vdW  Elec       q    Type
REMARK                         _______ _______ _______ _____ _____    ______ ____
ROOT
ATOM      1  O   UNL     1       0.653  -0.295  -0.071  0.00  0.00    +0.000 OA
ATOM      2  S   UNL     1       2.502  -0.751  -0.719  0.00  0.00    +0.000 S 
ATOM      3  O   UNL     1       2.888  -2.152  -0.428  0.00  0.00    +0.000 OA
ATOM      4  O   UNL     1       2.381  -0.370  -2.143  0.00  0.00    +0.000 OA
ATOM      5  O   UNL     1       2.574   0.692   0.270  0.00  0.00    +0.000 OA
ENDROOT
TORSDOF 0
REMARK  Name = Ferric sulfate
REMARK  0 active torsions:
REMARK  status: ('A' for Active; 'I' for Inactive)
REMARK                            x       y       z     vdW  Elec       q    Type
REMARK                         _______ _______ _______ _____ _____    ______ ____
ROOT
ATOM      1  O   UNL     1       3.129   1.427  -1.316  0.00  0.00    +0.000 OA
ATOM      2  S   UNL     1       4.598   1.026  -0.640  0.00  0.00    +0.000 S 
ATOM      3  O   UNL     1       4.019   2.409  -0.252  0.00  0.00    +0.000 OA
ATOM      4  O   UNL     1       5.269   0.601   0.791  0.00  0.00    +0.000 OA
ATOM      5  O   UNL     1       4.711  -0.180  -1.551  0.00  0.00    +0.000 OA
ENDROOT
TORSDOF 0
