REMARK  Name = Ferrous fumarate
REMARK  2 active torsions:
REMARK  status: ('A' for Active; 'I' for Inactive)
REMARK    1  A    between atoms: C_3  and  C_9
REMARK    2  A    between atoms: C_4  and  C_6
REMARK                            x       y       z     vdW  Elec       q    Type
REMARK                         _______ _______ _______ _____ _____    ______ ____
ROOT
ATOM      1 FE   UNL     1       0.655   0.938   0.019  0.00  0.00    +0.000 Fe
ENDROOT
TORSDOF 0
REMARK  Name = Ferrous fumarate
REMARK  2 active torsions:
REMARK  status: ('A' for Active; 'I' for Inactive)
REMARK    1  A    between atoms: C_3  and  C_9
REMARK    2  A    between atoms: C_4  and  C_6
REMARK                            x       y       z     vdW  Elec       q    Type
REMARK                         _______ _______ _______ _____ _____    ______ ____
ROOT
ATOM      1  C   UNL     2       2.482  -0.560  -0.164  0.00  0.00    +0.000 C 
ATOM      2  C   UNL     2       2.964   0.030  -1.270  0.00  0.00    +0.000 C 
ENDROOT
BRANCH   2   3
ATOM      3  C   UNL     2       1.979   0.225  -2.414  0.00  0.00    +0.000 C 
ATOM      4  O   UNL     2       0.820   0.512  -1.880  0.00  0.00    +0.000 OA
ATOM      5  O   UNL     2       2.419   0.335  -3.565  0.00  0.00    +0.000 OA
ENDBRANCH   2   3
BRANCH   1   6
ATOM      6  C   UNL     2       2.936  -0.197   1.243  0.00  0.00    +0.000 C 
ATOM      7  O   UNL     2       1.822   0.235   1.774  0.00  0.00    +0.000 OA
ATOM      8  O   UNL     2       4.121   0.016   1.461  0.00  0.00    +0.000 OA
ENDBRANCH   1   6
TORSDOF 2
