REMARK  Name = Ferrous sulfate anhydrous
REMARK  0 active torsions:
REMARK  status: ('A' for Active; 'I' for Inactive)
REMARK                            x       y       z     vdW  Elec       q    Type
REMARK                         _______ _______ _______ _____ _____    ______ ____
ROOT
ATOM      1 FE   UNL     1       1.049  -0.358  -1.294  0.00  0.00    +0.000 Fe
ENDROOT
TORSDOF 0
REMARK  Name = Ferrous sulfate anhydrous
REMARK  0 active torsions:
REMARK  status: ('A' for Active; 'I' for Inactive)
REMARK                            x       y       z     vdW  Elec       q    Type
REMARK                         _______ _______ _______ _____ _____    ______ ____
ROOT
ATOM      1  O   UNL     1       1.281   0.209   0.513  0.00  0.00    +0.000 OA
ATOM      2  S   UNL     1       2.759   0.171   0.368  0.00  0.00    +0.000 S 
ATOM      3  O   UNL     1       3.107  -1.231   0.486  0.00  0.00    +0.000 OA
ATOM      4  O   UNL     1       2.775   0.445  -1.092  0.00  0.00    +0.000 OA
ATOM      5  O   UNL     1       3.462   1.132   1.168  0.00  0.00    +0.000 OA
ENDROOT
TORSDOF 0
