REMARK  Name = Ferrous cysteine glycinate
REMARK  11 active torsions:
REMARK  status: ('A' for Active; 'I' for Inactive)
REMARK    1  A    between atoms: N_2  and  CA_3
REMARK    2  A    between atoms: CA_3  and  C_4
REMARK    3  A    between atoms: C_4  and  O_5
REMARK    4  A    between atoms: CA_8  and  N_9
REMARK    5  A    between atoms: CA_8  and  CB_10
REMARK    6  A    between atoms: CA_8  and  C_12
REMARK    7  A    between atoms: CB_10  and  SG_11
REMARK    8  A    between atoms: C_12  and  O_13
REMARK    9  A    between atoms: CA_16  and  N_17
REMARK   10  A    between atoms: CA_16  and  CB_18
REMARK   11  A    between atoms: CA_16  and  C_20
REMARK                            x       y       z     vdW  Elec       q    Type
REMARK                         _______ _______ _______ _____ _____    ______ ____
ROOT
ATOM      1 FE   UNL     1       0.355  -1.981  -1.359  0.00  0.00    +0.000 Fe
ENDROOT
TORSDOF 0
REMARK  Name = Ferrous cysteine glycinate
REMARK  11 active torsions:
REMARK  status: ('A' for Active; 'I' for Inactive)
REMARK    1  A    between atoms: N_2  and  CA_3
REMARK    2  A    between atoms: CA_3  and  C_4
REMARK    3  A    between atoms: C_4  and  O_5
REMARK    4  A    between atoms: CA_8  and  N_9
REMARK    5  A    between atoms: CA_8  and  CB_10
REMARK    6  A    between atoms: CA_8  and  C_12
REMARK    7  A    between atoms: CB_10  and  SG_11
REMARK    8  A    between atoms: C_12  and  O_13
REMARK    9  A    between atoms: CA_16  and  N_17
REMARK   10  A    between atoms: CA_16  and  CB_18
REMARK   11  A    between atoms: CA_16  and  C_20
REMARK                            x       y       z     vdW  Elec       q    Type
REMARK                         _______ _______ _______ _____ _____    ______ ____
ROOT
ATOM      1  CA  GLY A   1       3.243   0.854  -0.173  0.00  0.00    +0.000 C 
ENDROOT
BRANCH   1   2
ATOM      2  N   GLY A   1       1.239   1.250   0.040  0.00  0.00    +0.000 NA
ATOM      3  H1  GLY A   1       0.801   0.058   0.530  0.00  0.00    +0.000 HD
ATOM      4  H2  GLY A   1       0.488   1.236  -0.683  0.00  0.00    +0.000 HD
ENDBRANCH   1   2
BRANCH   1   5
ATOM      5  C   GLY A   1       3.674   1.953  -0.892  0.00  0.00    +0.000 C 
ATOM      6  OXT GLY A   1       4.876   1.977  -1.048  0.00  0.00    +0.000 OA
BRANCH   5   7
ATOM      7  O   GLY A   1       2.491   2.612  -1.335  0.00  0.00    +0.000 OA
ATOM      8  H   GLY A   1       1.589   2.462  -0.732  0.00  0.00    +0.000 HD
ENDBRANCH   5   7
ENDBRANCH   1   5
TORSDOF 3
REMARK  Name = Ferrous cysteine glycinate
REMARK  11 active torsions:
REMARK  status: ('A' for Active; 'I' for Inactive)
REMARK    1  A    between atoms: N_2  and  CA_3
REMARK    2  A    between atoms: CA_3  and  C_4
REMARK    3  A    between atoms: C_4  and  O_5
REMARK    4  A    between atoms: CA_8  and  N_9
REMARK    5  A    between atoms: CA_8  and  CB_10
REMARK    6  A    between atoms: CA_8  and  C_12
REMARK    7  A    between atoms: CB_10  and  SG_11
REMARK    8  A    between atoms: C_12  and  O_13
REMARK    9  A    between atoms: CA_16  and  N_17
REMARK   10  A    between atoms: CA_16  and  CB_18
REMARK   11  A    between atoms: CA_16  and  C_20
REMARK                            x       y       z     vdW  Elec       q    Type
REMARK                         _______ _______ _______ _____ _____    ______ ____
ROOT
ATOM      1  CA  CYS B   1       2.452  -0.490   0.699  0.00  0.00    +0.000 C 
ENDROOT
BRANCH   1   2
ATOM      2  N   CYS B   1       0.425  -0.756   1.160  0.00  0.00    +0.000 NA
ATOM      3  H1  CYS B   1      -0.157   0.538   0.783  0.00  0.00    +0.000 HD
ATOM      4  H2  CYS B   1       0.170  -0.088   2.028  0.00  0.00    +0.000 HD
ENDBRANCH   1   2
BRANCH   1   5
ATOM      5  C   CYS B   1       3.038   1.513   1.504  0.00  0.00    +0.000 C 
ATOM      6  OXT CYS B   1       4.130   2.070   1.487  0.00  0.00    +0.000 OA
BRANCH   5   7
ATOM      7  O   CYS B   1       1.801   1.905   2.766  0.00  0.00    +0.000 OA
ATOM      8  H   CYS B   1       0.886   1.974   1.953  0.00  0.00    +0.000 HD
ENDBRANCH   5   7
ENDBRANCH   1   5
BRANCH   1   9
ATOM      9  CB  CYS B   1       2.860  -0.479  -1.579  0.00  0.00    +0.000 C 
BRANCH   9  10
ATOM     10  SG  CYS B   1       1.990  -1.313  -3.071  0.00  0.00    +0.000 S 
ATOM     11  HG  CYS B   1       2.413  -2.370  -2.434  0.00  0.00    +0.000 HD
ENDBRANCH   9  10
ENDBRANCH   1   9
TORSDOF 5
REMARK  Name = Ferrous cysteine glycinate
REMARK  11 active torsions:
REMARK  status: ('A' for Active; 'I' for Inactive)
REMARK    1  A    between atoms: N_2  and  CA_3
REMARK    2  A    between atoms: CA_3  and  C_4
REMARK    3  A    between atoms: C_4  and  O_5
REMARK    4  A    between atoms: CA_8  and  N_9
REMARK    5  A    between atoms: CA_8  and  CB_10
REMARK    6  A    between atoms: CA_8  and  C_12
REMARK    7  A    between atoms: CB_10  and  SG_11
REMARK    8  A    between atoms: C_12  and  O_13
REMARK    9  A    between atoms: CA_16  and  N_17
REMARK   10  A    between atoms: CA_16  and  CB_18
REMARK   11  A    between atoms: CA_16  and  C_20
REMARK                            x       y       z     vdW  Elec       q    Type
REMARK                         _______ _______ _______ _____ _____    ______ ____
ROOT
ATOM      1  CA  CYS C   1       1.374  -0.335  -0.507  0.00  0.00    +0.000 C 
ENDROOT
BRANCH   1   2
ATOM      2  N   CYS C   1      -0.325  -0.092  -0.845  0.00  0.00    +0.000 NA
ATOM      3  H1  CYS C   1      -0.875  -0.300   0.095  0.00  0.00    +0.000 HD
ATOM      4  H2  CYS C   1      -0.907  -0.830  -1.031  0.00  0.00    +0.000 HD
ENDBRANCH   1   2
BRANCH   1   5
ATOM      5  C   CYS C   1       2.409  -2.159  -0.367  0.00  0.00    +0.000 C 
ATOM      6  O   CYS C   1       1.376  -2.810  -0.108  0.00  0.00    +0.000 OA
ATOM      7  OXT CYS C   1       3.640  -2.242  -0.113  0.00  0.00    +0.000 OA
ENDBRANCH   1   5
BRANCH   1   8
ATOM      8  CB  CYS C   1       1.615   0.543   1.530  0.00  0.00    +0.000 C 
ATOM      9  SG  CYS C   1       1.196   3.072   1.092  0.00  0.00    +0.000 SA
ENDBRANCH   1   8
TORSDOF 3
