REMARK  Name = Ferric ammonium citrate
REMARK  9 active torsions:
REMARK  status: ('A' for Active; 'I' for Inactive)
REMARK    1  A    between atoms: O_3  and  C_4
REMARK    2  A    between atoms: C_4  and  C_6
REMARK    3  A    between atoms: C_6  and  C_7
REMARK    4  A    between atoms: C_7  and  O_8
REMARK    5  A    between atoms: C_7  and  C_9
REMARK    6  A    between atoms: C_7  and  C_13
REMARK    7  A    between atoms: C_9  and  C_10
REMARK    8  A    between atoms: C_10  and  O_11
REMARK    9  A    between atoms: C_13  and  O_14
REMARK                            x       y       z     vdW  Elec       q    Type
REMARK                         _______ _______ _______ _____ _____    ______ ____
ROOT
ATOM      1  N   UNL     1       0.070   0.103   0.984  0.00  0.00    +0.000 NA
ATOM      2  H   UNL     1       0.757   0.538   0.312  0.00  0.00    +0.000 HD
ATOM      3  H   UNL     1      -0.210   1.130   1.198  0.00  0.00    +0.000 HD
ATOM      4  H   UNL     1      -0.717  -0.001   0.265  0.00  0.00    +0.000 HD
ENDROOT
TORSDOF 0
REMARK  Name = Ferric ammonium citrate
REMARK  9 active torsions:
REMARK  status: ('A' for Active; 'I' for Inactive)
REMARK    1  A    between atoms: O_3  and  C_4
REMARK    2  A    between atoms: C_4  and  C_6
REMARK    3  A    between atoms: C_6  and  C_7
REMARK    4  A    between atoms: C_7  and  O_8
REMARK    5  A    between atoms: C_7  and  C_9
REMARK    6  A    between atoms: C_7  and  C_13
REMARK    7  A    between atoms: C_9  and  C_10
REMARK    8  A    between atoms: C_10  and  O_11
REMARK    9  A    between atoms: C_13  and  O_14
REMARK                            x       y       z     vdW  Elec       q    Type
REMARK                         _______ _______ _______ _____ _____    ______ ____
ROOT
ATOM      1 FE   UNL     2       1.136  -1.479   1.572  0.00  0.00    +0.000 Fe
ENDROOT
TORSDOF 0
REMARK  Name = Ferric ammonium citrate
REMARK  9 active torsions:
REMARK  status: ('A' for Active; 'I' for Inactive)
REMARK    1  A    between atoms: O_3  and  C_4
REMARK    2  A    between atoms: C_4  and  C_6
REMARK    3  A    between atoms: C_6  and  C_7
REMARK    4  A    between atoms: C_7  and  O_8
REMARK    5  A    between atoms: C_7  and  C_9
REMARK    6  A    between atoms: C_7  and  C_13
REMARK    7  A    between atoms: C_9  and  C_10
REMARK    8  A    between atoms: C_10  and  O_11
REMARK    9  A    between atoms: C_13  and  O_14
REMARK                            x       y       z     vdW  Elec       q    Type
REMARK                         _______ _______ _______ _____ _____    ______ ____
ROOT
ATOM      1  C   UNL     3       4.650   0.741  -0.911  0.00  0.00    +0.000 C 
ENDROOT
BRANCH   1   2
ATOM      2  O   UNL     3       4.639   1.193   0.456  0.00  0.00    +0.000 OA
ATOM      3  H   UNL     3       5.376   0.825   0.982  0.00  0.00    +0.000 HD
ENDBRANCH   1   2
BRANCH   1   4
ATOM      4  C   UNL     3       5.559   1.575  -1.886  0.00  0.00    +0.000 C 
ATOM      5  O   UNL     3       6.756   1.512  -1.847  0.00  0.00    +0.000 OA
BRANCH   4   6
ATOM      6  O   UNL     3       4.923   2.372  -2.786  0.00  0.00    +0.000 OA
ATOM      7  H   UNL     3       3.974   2.562  -2.856  0.00  0.00    +0.000 HD
ENDBRANCH   4   6
ENDBRANCH   1   4
BRANCH   1   8
ATOM      8  C   UNL     3       3.215   0.983  -1.370  0.00  0.00    +0.000 C 
BRANCH   8   9
ATOM      9  C   UNL     3       2.351   0.062  -0.657  0.00  0.00    +0.000 C 
ATOM     10  O   UNL     3       2.376  -0.200   0.552  0.00  0.00    +0.000 OA
BRANCH   9  11
ATOM     11  O   UNL     3       1.208  -0.351  -1.201  0.00  0.00    +0.000 OA
ATOM     12  H   UNL     3       0.852   0.268  -1.895  0.00  0.00    +0.000 HD
ENDBRANCH   9  11
ENDBRANCH   8   9
ENDBRANCH   1   8
BRANCH   1  13
ATOM     13  C   UNL     3       5.072  -0.776  -0.964  0.00  0.00    +0.000 C 
BRANCH  13  14
ATOM     14  C   UNL     3       4.475  -1.855  -0.016  0.00  0.00    +0.000 C 
ATOM     15  O   UNL     3       4.215  -2.991  -0.352  0.00  0.00    +0.000 OA
BRANCH  14  16
ATOM     16  O   UNL     3       3.965  -1.479   1.205  0.00  0.00    +0.000 OA
ATOM     17  H   UNL     3       4.138  -0.518   1.352  0.00  0.00    +0.000 HD
ENDBRANCH  14  16
ENDBRANCH  13  14
ENDBRANCH   1  13
TORSDOF 9
