REMARK  Name = Ferrous succinate
REMARK  3 active torsions:
REMARK  status: ('A' for Active; 'I' for Inactive)
REMARK    1  A    between atoms: C_3  and  C_5
REMARK    2  A    between atoms: C_5  and  C_6
REMARK    3  A    between atoms: C_6  and  C_7
REMARK                            x       y       z     vdW  Elec       q    Type
REMARK                         _______ _______ _______ _____ _____    ______ ____
ROOT
ATOM      1 FE   UNL     1       0.439   0.358  -1.313  0.00  0.00    +0.000 Fe
ENDROOT
TORSDOF 0
REMARK  Name = Ferrous succinate
REMARK  3 active torsions:
REMARK  status: ('A' for Active; 'I' for Inactive)
REMARK    1  A    between atoms: C_3  and  C_5
REMARK    2  A    between atoms: C_5  and  C_6
REMARK    3  A    between atoms: C_6  and  C_7
REMARK                            x       y       z     vdW  Elec       q    Type
REMARK                         _______ _______ _______ _____ _____    ______ ____
ROOT
ATOM      1  C   UNL     2       3.216   0.437  -0.894  0.00  0.00    +0.000 C 
ENDROOT
BRANCH   1   3
ATOM      2  O   UNL     2       1.284  -0.029   0.208  0.00  0.00    +0.000 OA
ATOM      3  C   UNL     2       2.574  -0.137   0.353  0.00  0.00    +0.000 C 
ATOM      4  O   UNL     2       3.208  -0.696   1.237  0.00  0.00    +0.000 OA
ENDBRANCH   1   3
BRANCH   1   5
ATOM      5  C   UNL     2       4.721   0.400  -0.867  0.00  0.00    +0.000 C 
BRANCH   5   6
ATOM      6  C   UNL     2       5.351   0.996  -2.120  0.00  0.00    +0.000 C 
ATOM      7  O   UNL     2       4.518   1.397  -2.991  0.00  0.00    +0.000 OA
ATOM      8  O   UNL     2       6.609   0.999  -2.128  0.00  0.00    +0.000 OA
ENDBRANCH   5   6
ENDBRANCH   1   5
TORSDOF 3
