REMARK  Name = Ferumoxytol
REMARK  0 active torsions:
REMARK  status: ('A' for Active; 'I' for Inactive)
REMARK                            x       y       z     vdW  Elec       q    Type
REMARK                         _______ _______ _______ _____ _____    ______ ____
ROOT
ATOM      1  O   HOH     1       0.946   0.077   0.034  0.00  0.00    +0.000 OA
ENDROOT
TORSDOF 0
REMARK  Name = Ferumoxytol
REMARK  0 active torsions:
REMARK  status: ('A' for Active; 'I' for Inactive)
REMARK                            x       y       z     vdW  Elec       q    Type
REMARK                         _______ _______ _______ _____ _____    ______ ____
ROOT
ATOM      1  O   HOH     1       1.057   0.039  -0.072  0.00  0.00    +0.000 OA
ENDROOT
TORSDOF 0
REMARK  Name = Ferumoxytol
REMARK  0 active torsions:
REMARK  status: ('A' for Active; 'I' for Inactive)
REMARK                            x       y       z     vdW  Elec       q    Type
REMARK                         _______ _______ _______ _____ _____    ______ ____
ROOT
ATOM      1  O   HOH     1       0.939  -0.079  -0.008  0.00  0.00    +0.000 OA
ENDROOT
TORSDOF 0
REMARK  Name = Ferumoxytol
REMARK  0 active torsions:
REMARK  status: ('A' for Active; 'I' for Inactive)
REMARK                            x       y       z     vdW  Elec       q    Type
REMARK                         _______ _______ _______ _____ _____    ______ ____
ROOT
ATOM      1  O   HOH     1       0.958   0.063  -0.065  0.00  0.00    +0.000 OA
ENDROOT
TORSDOF 0
REMARK  Name = Ferumoxytol
REMARK  0 active torsions:
REMARK  status: ('A' for Active; 'I' for Inactive)
REMARK                            x       y       z     vdW  Elec       q    Type
REMARK                         _______ _______ _______ _____ _____    ______ ____
ROOT
ATOM      1 FE   UNL     1       1.033   0.056  -0.076  0.00  0.00    +0.000 Fe
ENDROOT
TORSDOF 0
REMARK  Name = Ferumoxytol
REMARK  0 active torsions:
REMARK  status: ('A' for Active; 'I' for Inactive)
REMARK                            x       y       z     vdW  Elec       q    Type
REMARK                         _______ _______ _______ _____ _____    ______ ____
ROOT
ATOM      1 FE   UNL     1       1.096   0.020  -0.017  0.00  0.00    +0.000 Fe
ENDROOT
TORSDOF 0
REMARK  Name = Ferumoxytol
REMARK  0 active torsions:
REMARK  status: ('A' for Active; 'I' for Inactive)
REMARK                            x       y       z     vdW  Elec       q    Type
REMARK                         _______ _______ _______ _____ _____    ______ ____
ROOT
ATOM      1 FE   UNL     1       1.040   0.038   0.084  0.00  0.00    +0.000 Fe
ENDROOT
TORSDOF 0
