REMARK  Name = Fesoterodine
REMARK  18 active torsions:
REMARK  status: ('A' for Active; 'I' for Inactive)
REMARK    1  A    between atoms: C_1  and  C_2
REMARK    2  A    between atoms: C_2  and  C_3
REMARK    3  A    between atoms: C_2  and  N_4
REMARK    4  A    between atoms: N_4  and  C_5
REMARK    5  A    between atoms: N_4  and  C_28
REMARK    6  A    between atoms: C_5  and  C_6
REMARK    7  A    between atoms: C_6  and  C_7
REMARK    8  A    between atoms: C_7  and  C_8
REMARK    9  A    between atoms: C_7  and  C_14
REMARK   10  A    between atoms: C_15  and  O_16
REMARK   11  A    between atoms: O_16  and  C_17
REMARK   12  A    between atoms: C_17  and  C_19
REMARK   13  A    between atoms: C_19  and  C_20
REMARK   14  A    between atoms: C_19  and  C_21
REMARK   15  A    between atoms: C_24  and  C_25
REMARK   16  A    between atoms: C_25  and  O_26
REMARK   17  A    between atoms: C_28  and  C_29
REMARK   18  A    between atoms: C_28  and  C_30
REMARK                            x       y       z     vdW  Elec       q    Type
REMARK                         _______ _______ _______ _____ _____    ______ ____
ROOT
ATOM      1  C   UNL     1       0.458  -3.560  -0.376  0.00  0.00    +0.000 C 
ENDROOT
BRANCH   1   2
ATOM      2  C   UNL     1       1.104  -2.452   0.468  0.00  0.00    +0.000 A 
ATOM      3  C   UNL     1       0.571  -2.112   1.716  0.00  0.00    +0.000 A 
ATOM      4  C   UNL     1       0.950  -0.936   2.350  0.00  0.00    +0.000 A 
ATOM      5  C   UNL     1       1.981  -0.174   1.833  0.00  0.00    +0.000 A 
ATOM      6  C   UNL     1       2.636  -0.602   0.686  0.00  0.00    +0.000 A 
ATOM      7  C   UNL     1       2.221  -1.761   0.013  0.00  0.00    +0.000 A 
ENDBRANCH   1   2
BRANCH   1   8
ATOM      8  C   UNL     1      -1.050  -3.435  -0.612  0.00  0.00    +0.000 A 
ATOM      9  C   UNL     1      -1.715  -2.215  -0.620  0.00  0.00    +0.000 A 
ATOM     10  C   UNL     1      -3.105  -2.229  -0.402  0.00  0.00    +0.000 A 
ATOM     11  C   UNL     1      -3.834  -3.453  -0.339  0.00  0.00    +0.000 A 
ATOM     12  C   UNL     1      -3.208  -4.668  -0.593  0.00  0.00    +0.000 A 
ATOM     13  C   UNL     1      -1.851  -4.574  -0.866  0.00  0.00    +0.000 A 
BRANCH   9  14
ATOM     14  O   UNL     1      -1.009  -0.974  -0.819  0.00  0.00    +0.000 OA
BRANCH  14  15
ATOM     15  C   UNL     1       0.026  -0.898  -1.784  0.00  0.00    +0.000 C 
ATOM     16  O   UNL     1       0.254  -1.803  -2.625  0.00  0.00    +0.000 OA
BRANCH  15  17
ATOM     17  C   UNL     1       0.854   0.404  -1.835  0.00  0.00    +0.000 C 
ATOM     18  C   UNL     1       0.613   1.416  -0.713  0.00  0.00    +0.000 C 
ATOM     19  C   UNL     1       2.348   0.235  -2.299  0.00  0.00    +0.000 C 
ENDBRANCH  15  17
ENDBRANCH  14  15
ENDBRANCH   9  14
BRANCH  12  20
ATOM     20  C   UNL     1      -3.922  -6.014  -0.482  0.00  0.00    +0.000 C 
BRANCH  20  21
ATOM     21  O   UNL     1      -3.173  -7.205  -0.754  0.00  0.00    +0.000 OA
ATOM     22  H   UNL     1      -2.450  -7.032  -1.371  0.00  0.00    +0.000 HD
ENDBRANCH  20  21
ENDBRANCH  12  20
ENDBRANCH   1   8
BRANCH   1  23
ATOM     23  C   UNL     1       1.036  -4.775   0.339  0.00  0.00    +0.000 C 
BRANCH  23  24
ATOM     24  C   UNL     1       0.215  -6.024   0.319  0.00  0.00    +0.000 C 
BRANCH  24  25
ATOM     25  N   UNL     1       0.651  -7.244   0.993  0.00  0.00    +0.000 NA
BRANCH  25  27
ATOM     26  C   UNL     1       3.058  -6.777   0.227  0.00  0.00    +0.000 C 
ATOM     27  C   UNL     1       1.859  -7.754   0.269  0.00  0.00    +0.000 C 
ATOM     28  C   UNL     1       2.471  -8.956   0.956  0.00  0.00    +0.000 C 
ENDBRANCH  25  27
BRANCH  25  29
ATOM     29  C   UNL     1      -0.557  -8.167   0.991  0.00  0.00    +0.000 C 
ATOM     30  C   UNL     1      -0.356  -9.488   1.725  0.00  0.00    +0.000 C 
ATOM     31  C   UNL     1      -1.800  -7.586   1.728  0.00  0.00    +0.000 C 
ENDBRANCH  25  29
ENDBRANCH  24  25
ENDBRANCH  23  24
ENDBRANCH   1  23
TORSDOF 12
