REMARK  Name = Fexinidazole
REMARK  7 active torsions:
REMARK  status: ('A' for Active; 'I' for Inactive)
REMARK    1  A    between atoms: C_1  and  S_2
REMARK    2  A    between atoms: S_2  and  C_3
REMARK    3  A    between atoms: C_6  and  O_7
REMARK    4  A    between atoms: O_7  and  C_8
REMARK    5  A    between atoms: C_8  and  C_9
REMARK    6  A    between atoms: C_12  and  N_15
REMARK    7  A    between atoms: N_13  and  C_14
REMARK                            x       y       z     vdW  Elec       q    Type
REMARK                         _______ _______ _______ _____ _____    ______ ____
ROOT
ATOM      1  C   UNL     1       3.909   5.895   2.978  0.00  0.00    +0.000 C 
ENDROOT
BRANCH   1   2
ATOM      2  C   UNL     1       4.230   6.892   4.073  0.00  0.00    +0.000 A 
ATOM      3  N   UNL     1       4.661   6.617   5.293  0.00  0.00    +0.000 NA
ATOM      4  C   UNL     1       4.713   7.808   5.965  0.00  0.00    +0.000 A 
ATOM      5  C   UNL     1       4.343   8.842   5.144  0.00  0.00    +0.000 A 
ATOM      6  N   UNL     1       4.075   8.275   3.920  0.00  0.00    +0.000 N 
ATOM      7  C   UNL     1       3.702   8.905   2.674  0.00  0.00    +0.000 C 
BRANCH   5   8
ATOM      8  N   UNL     1       4.240  10.221   5.501  0.00  0.00    +0.000 N 
ATOM      9  O   UNL     1       4.520  10.506   6.674  0.00  0.00    +0.000 OA
ATOM     10  O   UNL     1       3.880  11.029   4.645  0.00  0.00    +0.000 OA
ENDBRANCH   5   8
ENDBRANCH   1   2
BRANCH   1  11
ATOM     11  O   UNL     1       3.962   4.557   3.499  0.00  0.00    +0.000 OA
BRANCH  11  15
ATOM     12  C   UNL     1       3.266   1.283   0.957  0.00  0.00    +0.000 A 
ATOM     13  C   UNL     1       3.712   1.117   2.269  0.00  0.00    +0.000 A 
ATOM     14  C   UNL     1       3.883   2.235   3.104  0.00  0.00    +0.000 A 
ATOM     15  C   UNL     1       3.716   3.535   2.612  0.00  0.00    +0.000 A 
ATOM     16  C   UNL     1       3.333   3.694   1.279  0.00  0.00    +0.000 A 
ATOM     17  C   UNL     1       3.114   2.577   0.459  0.00  0.00    +0.000 A 
BRANCH  12  19
ATOM     18  C   UNL     1       1.047  -0.030  -0.047  0.00  0.00    +0.000 C 
ATOM     19  S   UNL     1       2.869  -0.127  -0.063  0.00  0.00    +0.000 S 
ENDBRANCH  12  19
ENDBRANCH  11  15
ENDBRANCH   1  11
TORSDOF 5
