REMARK  Name = Fexofenadine
REMARK  15 active torsions:
REMARK  status: ('A' for Active; 'I' for Inactive)
REMARK    1  A    between atoms: C_1  and  C_2
REMARK    2  A    between atoms: C_2  and  C_3
REMARK    3  A    between atoms: C_2  and  C_4
REMARK    4  A    between atoms: C_2  and  C_7
REMARK    5  A    between atoms: C_4  and  O_5
REMARK    6  A    between atoms: C_10  and  C_13
REMARK    7  A    between atoms: C_13  and  O_14
REMARK    8  A    between atoms: C_13  and  C_15
REMARK    9  A    between atoms: C_15  and  C_16
REMARK   10  A    between atoms: C_16  and  C_17
REMARK   11  A    between atoms: C_17  and  N_18
REMARK   12  A    between atoms: C_21  and  C_24
REMARK   13  A    between atoms: C_24  and  O_25
REMARK   14  A    between atoms: C_24  and  C_26
REMARK   15  A    between atoms: C_24  and  C_32
REMARK                            x       y       z     vdW  Elec       q    Type
REMARK                         _______ _______ _______ _____ _____    ______ ____
ROOT
ATOM      1  N   UNL     1       4.084   7.982   5.941  0.00  0.00    +0.000 NA
ATOM      2  C   UNL     1       5.499   8.004   6.339  0.00  0.00    +0.000 C 
ATOM      3  C   UNL     1       5.635   8.879   7.575  0.00  0.00    +0.000 C 
ATOM      4  C   UNL     1       5.222  10.326   7.268  0.00  0.00    +0.000 C 
ATOM      5  C   UNL     1       3.745  10.257   6.811  0.00  0.00    +0.000 C 
ATOM      6  C   UNL     1       3.526   9.299   5.651  0.00  0.00    +0.000 C 
ENDROOT
BRANCH   1   7
ATOM      7  C   UNL     1       3.876   7.120   4.794  0.00  0.00    +0.000 C 
BRANCH   7   8
ATOM      8  C   UNL     1       3.981   5.685   5.259  0.00  0.00    +0.000 C 
BRANCH   8   9
ATOM      9  C   UNL     1       3.650   4.803   4.093  0.00  0.00    +0.000 C 
BRANCH   9  10
ATOM     10  C   UNL     1       3.729   3.334   4.470  0.00  0.00    +0.000 C 
BRANCH  10  14
ATOM     11  C   UNL     1       3.007   0.808   1.066  0.00  0.00    +0.000 A 
ATOM     12  C   UNL     1       3.393   0.265   2.304  0.00  0.00    +0.000 A 
ATOM     13  C   UNL     1       3.532   1.079   3.420  0.00  0.00    +0.000 A 
ATOM     14  C   UNL     1       3.432   2.463   3.285  0.00  0.00    +0.000 A 
ATOM     15  C   UNL     1       3.073   3.004   2.046  0.00  0.00    +0.000 A 
ATOM     16  C   UNL     1       2.813   2.189   0.973  0.00  0.00    +0.000 A 
BRANCH  11  18
ATOM     17  C   UNL     1       1.064  -0.059  -0.123  0.00  0.00    +0.000 C 
ATOM     18  C   UNL     1       2.611  -0.056  -0.128  0.00  0.00    +0.000 C 
ATOM     19  C   UNL     1       3.092  -1.510   0.018  0.00  0.00    +0.000 C 
BRANCH  18  20
ATOM     20  C   UNL     1       3.095   0.443  -1.508  0.00  0.00    +0.000 C 
ATOM     21  O   UNL     1       2.715  -0.073  -2.562  0.00  0.00    +0.000 OA
BRANCH  20  22
ATOM     22  O   UNL     1       3.974   1.467  -1.560  0.00  0.00    +0.000 OA
ATOM     23  H   UNL     1       4.308   1.813  -0.710  0.00  0.00    +0.000 HD
ENDBRANCH  20  22
ENDBRANCH  18  20
ENDBRANCH  11  18
ENDBRANCH  10  14
BRANCH  10  24
ATOM     24  O   UNL     1       5.048   3.037   4.926  0.00  0.00    +0.000 OA
ATOM     25  H   UNL     1       5.649   3.181   4.175  0.00  0.00    +0.000 HD
ENDBRANCH  10  24
ENDBRANCH   9  10
ENDBRANCH   8   9
ENDBRANCH   7   8
ENDBRANCH   1   7
BRANCH   4  26
ATOM     26  C   UNL     1       6.147  11.115   6.252  0.00  0.00    +0.000 C 
BRANCH  26  27
ATOM     27  C   UNL     1       5.517  12.503   6.011  0.00  0.00    +0.000 A 
ATOM     28  C   UNL     1       5.147  12.954   4.733  0.00  0.00    +0.000 A 
ATOM     29  C   UNL     1       4.802  14.286   4.528  0.00  0.00    +0.000 A 
ATOM     30  C   UNL     1       4.757  15.168   5.603  0.00  0.00    +0.000 A 
ATOM     31  C   UNL     1       5.046  14.724   6.889  0.00  0.00    +0.000 A 
ATOM     32  C   UNL     1       5.393  13.395   7.097  0.00  0.00    +0.000 A 
ENDBRANCH  26  27
BRANCH  26  33
ATOM     33  C   UNL     1       7.619  11.193   6.693  0.00  0.00    +0.000 A 
ATOM     34  C   UNL     1       8.304  12.407   6.839  0.00  0.00    +0.000 A 
ATOM     35  C   UNL     1       9.662  12.443   7.137  0.00  0.00    +0.000 A 
ATOM     36  C   UNL     1      10.353  11.266   7.392  0.00  0.00    +0.000 A 
ATOM     37  C   UNL     1       9.712  10.048   7.251  0.00  0.00    +0.000 A 
ATOM     38  C   UNL     1       8.389  10.022   6.833  0.00  0.00    +0.000 A 
ENDBRANCH  26  33
BRANCH  26  39
ATOM     39  O   UNL     1       6.285  10.439   4.999  0.00  0.00    +0.000 OA
ATOM     40  H   UNL     1       5.466  10.531   4.506  0.00  0.00    +0.000 HD
ENDBRANCH  26  39
ENDBRANCH   4  26
TORSDOF 13
