REMARK  Name = Filgotinib
REMARK  4 active torsions:
REMARK  status: ('A' for Active; 'I' for Inactive)
REMARK    1  A    between atoms: C_2  and  C_28
REMARK    2  A    between atoms: C_11  and  C_12
REMARK    3  A    between atoms: C_15  and  C_16
REMARK    4  A    between atoms: C_16  and  N_17
REMARK                            x       y       z     vdW  Elec       q    Type
REMARK                         _______ _______ _______ _____ _____    ______ ____
ROOT
ATOM      1  O   UNL     1       0.994   0.029  -0.047  0.00  0.00    +0.000 OA
ATOM      2  C   UNL     1       2.213   0.076   0.032  0.00  0.00    +0.000 C 
ATOM      3  N   UNL     1       2.936   0.627   1.079  0.00  0.00    +0.000 N 
ATOM      4  C   UNL     1       2.274   1.107   2.186  0.00  0.00    +0.000 A 
ATOM      5  N   UNL     1       1.298   0.434   2.770  0.00  0.00    +0.000 NA
ATOM      6  N   UNL     1       0.952   1.224   3.802  0.00  0.00    +0.000 N 
ATOM      7  C   UNL     1       1.674   2.409   3.741  0.00  0.00    +0.000 A 
ATOM      8  C   UNL     1       1.305   3.431   4.676  0.00  0.00    +0.000 A 
ATOM      9  C   UNL     1       0.269   3.236   5.521  0.00  0.00    +0.000 A 
ATOM     10  C   UNL     1      -0.434   1.967   5.564  0.00  0.00    +0.000 A 
ATOM     11  C   UNL     1       0.011   0.949   4.790  0.00  0.00    +0.000 A 
ATOM     12  N   UNL     1       2.620   2.277   2.822  0.00  0.00    +0.000 NA
ATOM     13  H   UNL     1       3.914   0.844   1.012  0.00  0.00    +0.000 HD
ENDROOT
BRANCH  11  14
ATOM     14  C   UNL     1      -0.566  -0.390   4.822  0.00  0.00    +0.000 A 
ATOM     15  C   UNL     1       0.043  -1.670   4.826  0.00  0.00    +0.000 A 
ATOM     16  C   UNL     1      -0.669  -2.924   4.598  0.00  0.00    +0.000 A 
ATOM     17  C   UNL     1      -2.012  -2.913   4.407  0.00  0.00    +0.000 A 
ATOM     18  C   UNL     1      -2.405  -1.617   4.408  0.00  0.00    +0.000 A 
ATOM     19  C   UNL     1      -1.878  -0.380   4.646  0.00  0.00    +0.000 A 
BRANCH  17  20
ATOM     20  C   UNL     1      -3.139  -3.966   4.244  0.00  0.00    +0.000 C 
BRANCH  20  21
ATOM     21  N   UNL     1      -4.608  -3.514   4.038  0.00  0.00    +0.000 NA
ATOM     22  C   UNL     1      -4.956  -2.952   2.694  0.00  0.00    +0.000 C 
ATOM     23  C   UNL     1      -4.266  -1.645   2.352  0.00  0.00    +0.000 C 
ATOM     24  S   UNL     1      -4.995  -0.413   3.749  0.00  0.00    +0.000 S 
ATOM     25  O   UNL     1      -4.242   0.807   3.676  0.00  0.00    +0.000 OA
ATOM     26  O   UNL     1      -6.443  -0.286   3.540  0.00  0.00    +0.000 OA
ATOM     27  C   UNL     1      -4.767  -1.437   5.568  0.00  0.00    +0.000 C 
ATOM     28  C   UNL     1      -5.292  -2.828   5.187  0.00  0.00    +0.000 C 
ENDBRANCH  20  21
ENDBRANCH  17  20
ENDBRANCH  11  14
BRANCH   2  29
ATOM     29  C   UNL     1       3.015  -0.438  -1.136  0.00  0.00    +0.000 C 
ATOM     30  C   UNL     1       2.715  -1.824  -1.684  0.00  0.00    +0.000 C 
ATOM     31  C   UNL     1       2.319  -0.618  -2.482  0.00  0.00    +0.000 C 
ENDBRANCH   2  29
TORSDOF 4
