REMARK  Name = Finasteride
REMARK  7 active torsions:
REMARK  status: ('A' for Active; 'I' for Inactive)
REMARK    1  A    between atoms: C_5  and  C_6
REMARK    2  A    between atoms: N_8  and  C_9
REMARK    3  A    between atoms: C_9  and  C_10
REMARK    4  A    between atoms: C_9  and  C_11
REMARK    5  A    between atoms: C_9  and  C_12
REMARK    6  A    between atoms: C_13  and  C_14
REMARK    7  A    between atoms: C_30  and  C_31
REMARK                            x       y       z     vdW  Elec       q    Type
REMARK                         _______ _______ _______ _____ _____    ______ ____
ROOT
ATOM      1  C   UNL     1       1.786   0.016  -0.048  0.00  0.00    +0.000 C 
ATOM      2  C   UNL     1       2.210   0.022  -1.410  0.00  0.00    +0.000 C 
ATOM      3  C   UNL     1       3.339  -0.313  -0.473  0.00  0.00    +0.000 C 
ATOM      4  C   UNL     1       2.794  -0.827   1.451  0.00  0.00    +0.000 C 
ATOM      5  C   UNL     1       2.720  -1.547   0.321  0.00  0.00    +0.000 C 
ATOM      6  C   UNL     1       1.997  -2.744  -0.148  0.00  0.00    +0.000 C 
ATOM      7  C   UNL     1       4.549  -1.498   0.762  0.00  0.00    +0.000 C 
ATOM      8  C   UNL     1       4.926   0.030   1.500  0.00  0.00    +0.000 C 
ATOM      9  C   UNL     1       4.201   1.429   0.926  0.00  0.00    +0.000 C 
ATOM     10  C   UNL     1       2.529   1.447   0.782  0.00  0.00    +0.000 C 
ATOM     11  C   UNL     1       2.073   2.691   0.050  0.00  0.00    +0.000 C 
ATOM     12  C   UNL     1       2.638   3.948   0.670  0.00  0.00    +0.000 C 
ATOM     13  C   UNL     1       4.158   3.995   0.776  0.00  0.00    +0.000 C 
ATOM     14  N   UNL     1       4.782   4.361  -0.492  0.00  0.00    +0.000 N 
ATOM     15  C   UNL     1       6.164   4.390  -0.285  0.00  0.00    +0.000 C 
ATOM     16  O   UNL     1       6.778   5.219   0.376  0.00  0.00    +0.000 OA
ATOM     17  C   UNL     1       6.794   3.026  -0.504  0.00  0.00    +0.000 C 
ATOM     18  C   UNL     1       6.333   2.624   0.728  0.00  0.00    +0.000 C 
ATOM     19  C   UNL     1       4.830   2.721   1.408  0.00  0.00    +0.000 C 
ATOM     20  C   UNL     1       4.424   2.684   2.916  0.00  0.00    +0.000 C 
ATOM     21  H   UNL     1       4.462   3.781  -1.259  0.00  0.00    +0.000 HD
ENDROOT
BRANCH   4  22
ATOM     22  C   UNL     1       2.867  -2.300   2.599  0.00  0.00    +0.000 C 
ATOM     23  O   UNL     1       3.368  -3.357   2.189  0.00  0.00    +0.000 OA
ATOM     24  N   UNL     1       2.425  -2.437   3.957  0.00  0.00    +0.000 N 
ATOM     25  H   UNL     1       1.783  -1.798   4.410  0.00  0.00    +0.000 HD
BRANCH  24  26
ATOM     26  C   UNL     1       2.766  -3.755   4.810  0.00  0.00    +0.000 C 
ATOM     27  C   UNL     1       2.227  -5.072   4.183  0.00  0.00    +0.000 C 
ATOM     28  C   UNL     1       4.301  -3.865   4.940  0.00  0.00    +0.000 C 
ATOM     29  C   UNL     1       2.234  -3.791   6.288  0.00  0.00    +0.000 C 
ENDBRANCH  24  26
ENDBRANCH   4  22
TORSDOF 2
