REMARK  Name = Finerenone
REMARK  10 active torsions:
REMARK  status: ('A' for Active; 'I' for Inactive)
REMARK    1  A    between atoms: C_1  and  C_2
REMARK    2  A    between atoms: C_2  and  O_3
REMARK    3  A    between atoms: O_3  and  C_4
REMARK    4  A    between atoms: C_7  and  C_8
REMARK    5  A    between atoms: C_11  and  C_12
REMARK    6  A    between atoms: C_15  and  C_20
REMARK    7  A    between atoms: C_17  and  O_18
REMARK    8  A    between atoms: O_18  and  C_19
REMARK    9  A    between atoms: C_22  and  C_23
REMARK   10  A    between atoms: C_26  and  C_27
REMARK                            x       y       z     vdW  Elec       q    Type
REMARK                         _______ _______ _______ _____ _____    ______ ____
ROOT
ATOM      1  C   UNL     1       4.573  -0.596   1.234  0.00  0.00    +0.000 A 
ATOM      2  N   UNL     1       5.350   0.473   1.011  0.00  0.00    +0.000 NA
ATOM      3  C   UNL     1       6.671   0.309   1.277  0.00  0.00    +0.000 A 
ATOM      4  C   UNL     1       7.276  -0.885   1.715  0.00  0.00    +0.000 A 
ATOM      5  C   UNL     1       8.728  -0.863   2.104  0.00  0.00    +0.000 C 
ATOM      6  C   UNL     1       6.445  -2.011   1.891  0.00  0.00    +0.000 A 
ATOM      7  C   UNL     1       5.061  -1.819   1.720  0.00  0.00    +0.000 A 
ATOM      8  C   UNL     1       4.090  -2.837   2.282  0.00  0.00    +0.000 C 
ATOM      9  C   UNL     1       4.658  -4.186   2.703  0.00  0.00    +0.000 C 
ATOM     10  C   UNL     1       6.016  -4.324   2.801  0.00  0.00    +0.000 C 
ATOM     11  C   UNL     1       6.629  -5.412   3.694  0.00  0.00    +0.000 C 
ATOM     12  N   UNL     1       6.901  -3.288   2.364  0.00  0.00    +0.000 N 
ATOM     13  H   UNL     1       7.789  -3.252   2.868  0.00  0.00    +0.000 HD
ENDROOT
BRANCH   8  14
ATOM     14  C   UNL     1       3.202  -2.202   3.422  0.00  0.00    +0.000 A 
ATOM     15  C   UNL     1       1.841  -2.026   3.039  0.00  0.00    +0.000 A 
ATOM     16  C   UNL     1       0.864  -1.591   3.925  0.00  0.00    +0.000 A 
ATOM     17  C   UNL     1       1.220  -1.264   5.222  0.00  0.00    +0.000 A 
ATOM     18  C   UNL     1       2.543  -1.367   5.621  0.00  0.00    +0.000 A 
ATOM     19  C   UNL     1       3.543  -1.812   4.753  0.00  0.00    +0.000 A 
BRANCH  19  20
ATOM     20  O   UNL     1       4.719  -1.748   5.475  0.00  0.00    +0.000 OA
ATOM     21  C   UNL     1       5.827  -2.158   4.761  0.00  0.00    +0.000 C 
ENDBRANCH  19  20
BRANCH  17  22
ATOM     22  C   UNL     1       0.233  -0.803   6.151  0.00  0.00    +0.000 C 
ATOM     23  N   UNL     1      -0.570  -0.431   6.887  0.00  0.00    +0.000 NA
ENDBRANCH  17  22
ENDBRANCH   8  14
BRANCH   9  24
ATOM     24  C   UNL     1       3.636  -5.196   3.209  0.00  0.00    +0.000 C 
ATOM     25  N   UNL     1       2.322  -4.993   2.933  0.00  0.00    +0.000 N 
ATOM     26  O   UNL     1       3.887  -6.199   3.864  0.00  0.00    +0.000 OA
ATOM     27  H   UNL     1       1.925  -4.194   2.482  0.00  0.00    +0.000 HD
ATOM     28  H   UNL     1       1.666  -5.641   3.347  0.00  0.00    +0.000 HD
ENDBRANCH   9  24
BRANCH   1  29
ATOM     29  O   UNL     1       3.201  -0.418   1.203  0.00  0.00    +0.000 OA
BRANCH  29  31
ATOM     30  C   UNL     1       1.165   0.002  -0.026  0.00  0.00    +0.000 C 
ATOM     31  C   UNL     1       2.697   0.034  -0.048  0.00  0.00    +0.000 C 
ENDBRANCH  29  31
ENDBRANCH   1  29
TORSDOF 6
