REMARK  Name = Fingolimod
REMARK  16 active torsions:
REMARK  status: ('A' for Active; 'I' for Inactive)
REMARK    1  A    between atoms: C_1  and  C_2
REMARK    2  A    between atoms: C_2  and  C_3
REMARK    3  A    between atoms: C_3  and  C_4
REMARK    4  A    between atoms: C_4  and  C_5
REMARK    5  A    between atoms: C_5  and  C_6
REMARK    6  A    between atoms: C_6  and  C_7
REMARK    7  A    between atoms: C_7  and  C_8
REMARK    8  A    between atoms: C_8  and  C_9
REMARK    9  A    between atoms: C_12  and  C_13
REMARK   10  A    between atoms: C_13  and  C_14
REMARK   11  A    between atoms: C_14  and  C_15
REMARK   12  A    between atoms: C_15  and  N_16
REMARK   13  A    between atoms: C_15  and  C_17
REMARK   14  A    between atoms: C_15  and  C_19
REMARK   15  A    between atoms: C_17  and  O_18
REMARK   16  A    between atoms: C_19  and  O_20
REMARK                            x       y       z     vdW  Elec       q    Type
REMARK                         _______ _______ _______ _____ _____    ______ ____
ROOT
ATOM      1  C   UNL     1       9.041  -4.815   2.940  0.00  0.00    +0.000 A 
ATOM      2  C   UNL     1       8.846  -6.097   2.413  0.00  0.00    +0.000 A 
ATOM      3  C   UNL     1       9.014  -7.202   3.233  0.00  0.00    +0.000 A 
ATOM      4  C   UNL     1       9.458  -7.030   4.546  0.00  0.00    +0.000 A 
ATOM      5  C   UNL     1       9.690  -5.746   5.051  0.00  0.00    +0.000 A 
ATOM      6  C   UNL     1       9.481  -4.639   4.246  0.00  0.00    +0.000 A 
ENDROOT
BRANCH   1   7
ATOM      7  C   UNL     1       8.588  -3.621   2.159  0.00  0.00    +0.000 C 
BRANCH   7   8
ATOM      8  C   UNL     1       7.063  -3.616   2.192  0.00  0.00    +0.000 C 
BRANCH   8   9
ATOM      9  C   UNL     1       6.532  -2.419   1.439  0.00  0.00    +0.000 C 
BRANCH   9  10
ATOM     10  C   UNL     1       5.014  -2.430   1.447  0.00  0.00    +0.000 C 
BRANCH  10  11
ATOM     11  C   UNL     1       4.493  -1.227   0.679  0.00  0.00    +0.000 C 
BRANCH  11  12
ATOM     12  C   UNL     1       2.973  -1.220   0.674  0.00  0.00    +0.000 C 
BRANCH  12  14
ATOM     13  C   UNL     1       0.932  -0.008  -0.100  0.00  0.00    +0.000 C 
ATOM     14  C   UNL     1       2.448  -0.016  -0.095  0.00  0.00    +0.000 C 
ENDBRANCH  12  14
ENDBRANCH  11  12
ENDBRANCH  10  11
ENDBRANCH   9  10
ENDBRANCH   8   9
ENDBRANCH   7   8
ENDBRANCH   1   7
BRANCH   4  15
ATOM     15  C   UNL     1       9.759  -8.269   5.334  0.00  0.00    +0.000 C 
BRANCH  15  16
ATOM     16  C   UNL     1      10.350  -8.013   6.719  0.00  0.00    +0.000 C 
BRANCH  16  17
ATOM     17  C   UNL     1      10.721  -9.270   7.521  0.00  0.00    +0.000 C 
BRANCH  17  18
ATOM     18  N   UNL     1       9.501 -10.085   7.775  0.00  0.00    +0.000 NA
ATOM     19  H   UNL     1       9.064 -10.341   6.890  0.00  0.00    +0.000 HD
ATOM     20  H   UNL     1       8.803  -9.490   8.229  0.00  0.00    +0.000 HD
ENDBRANCH  17  18
BRANCH  17  21
ATOM     21  C   UNL     1      11.808 -10.117   6.800  0.00  0.00    +0.000 C 
BRANCH  21  22
ATOM     22  O   UNL     1      11.371 -10.650   5.550  0.00  0.00    +0.000 OA
ATOM     23  H   UNL     1      10.530 -11.104   5.716  0.00  0.00    +0.000 HD
ENDBRANCH  21  22
ENDBRANCH  17  21
BRANCH  17  24
ATOM     24  C   UNL     1      11.280  -8.798   8.891  0.00  0.00    +0.000 C 
BRANCH  24  25
ATOM     25  O   UNL     1      11.572  -9.911   9.728  0.00  0.00    +0.000 OA
ATOM     26  H   UNL     1      10.795 -10.498   9.646  0.00  0.00    +0.000 HD
ENDBRANCH  24  25
ENDBRANCH  17  24
ENDBRANCH  16  17
ENDBRANCH  15  16
ENDBRANCH   4  15
TORSDOF 15
