REMARK  Name = Flavin mononucleotide
REMARK  14 active torsions:
REMARK  status: ('A' for Active; 'I' for Inactive)
REMARK    1  A    between atoms: C_1  and  C_2
REMARK    2  A    between atoms: C_7  and  C_8
REMARK    3  A    between atoms: N_9  and  C_10
REMARK    4  A    between atoms: C_10  and  C_11
REMARK    5  A    between atoms: C_11  and  O_12
REMARK    6  A    between atoms: C_11  and  C_13
REMARK    7  A    between atoms: C_13  and  O_14
REMARK    8  A    between atoms: C_13  and  C_15
REMARK    9  A    between atoms: C_15  and  O_16
REMARK   10  A    between atoms: C_15  and  C_17
REMARK   11  A    between atoms: C_17  and  O_18
REMARK   12  A    between atoms: O_18  and  P_19
REMARK   13  A    between atoms: P_19  and  O_20
REMARK   14  A    between atoms: P_19  and  O_21
REMARK                            x       y       z     vdW  Elec       q    Type
REMARK                         _______ _______ _______ _____ _____    ______ ____
ROOT
ATOM      1  C   UNL     1       9.276   7.636   2.174  0.00  0.00    +0.000 C 
ATOM      2  C   UNL     1       7.971   7.020   2.651  0.00  0.00    +0.000 A 
ATOM      3  C   UNL     1       7.147   7.595   3.699  0.00  0.00    +0.000 A 
ATOM      4  C   UNL     1       5.748   7.308   3.924  0.00  0.00    +0.000 A 
ATOM      5  C   UNL     1       5.051   6.662   2.952  0.00  0.00    +0.000 A 
ATOM      6  C   UNL     1       5.883   6.503   1.842  0.00  0.00    +0.000 A 
ATOM      7  C   UNL     1       7.357   6.236   1.718  0.00  0.00    +0.000 A 
ATOM      8  C   UNL     1       8.367   5.770   0.374  0.00  0.00    +0.000 C 
ATOM      9  N   UNL     1       3.701   6.221   3.065  0.00  0.00    +0.000 N 
ATOM     10  C   UNL     1       3.109   6.427   4.319  0.00  0.00    +0.000 A 
ATOM     11  N   UNL     1       1.939   5.959   4.646  0.00  0.00    +0.000 NA
ATOM     12  C   UNL     1       1.343   6.238   5.849  0.00  0.00    +0.000 A 
ATOM     13  O   UNL     1       0.223   5.837   6.134  0.00  0.00    +0.000 OA
ATOM     14  N   UNL     1       2.001   7.016   6.758  0.00  0.00    +0.000 N 
ATOM     15  C   UNL     1       3.244   7.569   6.622  0.00  0.00    +0.000 A 
ATOM     16  O   UNL     1       3.791   8.242   7.455  0.00  0.00    +0.000 OA
ATOM     17  C   UNL     1       3.894   7.253   5.314  0.00  0.00    +0.000 A 
ATOM     18  N   UNL     1       5.104   7.692   5.103  0.00  0.00    +0.000 NA
ATOM     19  H   UNL     1       1.514   7.219   7.614  0.00  0.00    +0.000 HD
ENDROOT
BRANCH   9  20
ATOM     20  C   UNL     1       2.942   5.206   2.200  0.00  0.00    +0.000 C 
BRANCH  20  21
ATOM     21  C   UNL     1       3.576   4.756   0.907  0.00  0.00    +0.000 C 
BRANCH  21  22
ATOM     22  O   UNL     1       3.418   5.776  -0.103  0.00  0.00    +0.000 OA
ATOM     23  H   UNL     1       3.423   6.673   0.288  0.00  0.00    +0.000 HD
ENDBRANCH  21  22
BRANCH  21  24
ATOM     24  C   UNL     1       4.997   4.296   1.149  0.00  0.00    +0.000 C 
BRANCH  24  25
ATOM     25  O   UNL     1       5.110   2.953   1.655  0.00  0.00    +0.000 OA
ATOM     26  H   UNL     1       5.365   2.351   0.951  0.00  0.00    +0.000 HD
ENDBRANCH  24  25
BRANCH  24  27
ATOM     27  C   UNL     1       5.798   4.755  -0.140  0.00  0.00    +0.000 C 
BRANCH  27  28
ATOM     28  O   UNL     1       6.882   3.757  -0.126  0.00  0.00    +0.000 OA
ATOM     29  H   UNL     1       7.296   3.722   0.771  0.00  0.00    +0.000 HD
ENDBRANCH  27  28
BRANCH  27  30
ATOM     30  C   UNL     1       6.082   6.533  -0.748  0.00  0.00    +0.000 C 
BRANCH  30  31
ATOM     31  O   UNL     1       5.452   7.938  -0.546  0.00  0.00    +0.000 OA
BRANCH  31  32
ATOM     32  P   UNL     1       6.568   9.209  -0.476  0.00  0.00    +0.000 P 
ATOM     33  O   UNL     1       6.314  10.674  -0.726  0.00  0.00    +0.000 OA
BRANCH  32  34
ATOM     34  O   UNL     1       7.153   9.125   0.978  0.00  0.00    +0.000 OA
ATOM     35  H   UNL     1       7.378   8.207   1.121  0.00  0.00    +0.000 HD
ENDBRANCH  32  34
BRANCH  32  36
ATOM     36  O   UNL     1       7.696   8.603  -1.427  0.00  0.00    +0.000 OA
ATOM     37  H   UNL     1       7.228   8.287  -2.229  0.00  0.00    +0.000 HD
ENDBRANCH  32  36
ENDBRANCH  31  32
ENDBRANCH  30  31
ENDBRANCH  27  30
ENDBRANCH  24  27
ENDBRANCH  21  24
ENDBRANCH  20  21
ENDBRANCH   9  20
TORSDOF 12
