REMARK  Name = Flavone
REMARK  1 active torsions:
REMARK  status: ('A' for Active; 'I' for Inactive)
REMARK    1  A    between atoms: C_4  and  C_12
REMARK                            x       y       z     vdW  Elec       q    Type
REMARK                         _______ _______ _______ _____ _____    ______ ____
ROOT
ATOM      1  O   UNL     1      -1.777   1.981   0.020  0.00  0.00    +0.000 OA
ATOM      2  C   UNL     1      -1.377   0.822   0.026  0.00  0.00    +0.000 A 
ATOM      3  C   UNL     1      -2.321  -0.304   0.017  0.00  0.00    +0.000 A 
ATOM      4  C   UNL     1      -1.840  -1.555   0.000  0.00  0.00    +0.000 A 
ATOM      5  O   UNL     1      -0.495  -1.884   0.035  0.00  0.00    +0.000 OA
ATOM      6  C   UNL     1       0.422  -0.861   0.023  0.00  0.00    +0.000 A 
ATOM      7  C   UNL     1       1.773  -1.209   0.017  0.00  0.00    +0.000 A 
ATOM      8  C   UNL     1       2.749  -0.209  -0.003  0.00  0.00    +0.000 A 
ATOM      9  C   UNL     1       2.376   1.137  -0.018  0.00  0.00    +0.000 A 
ATOM     10  C   UNL     1       1.025   1.487  -0.009  0.00  0.00    +0.000 A 
ATOM     11  C   UNL     1       0.053   0.483   0.014  0.00  0.00    +0.000 A 
ENDROOT
BRANCH   4  12
ATOM     12  C   UNL     1      -2.741  -2.709  -0.129  0.00  0.00    +0.000 A 
ATOM     13  C   UNL     1      -2.724  -3.749   0.808  0.00  0.00    +0.000 A 
ATOM     14  C   UNL     1      -3.496  -4.896   0.601  0.00  0.00    +0.000 A 
ATOM     15  C   UNL     1      -4.341  -4.982  -0.506  0.00  0.00    +0.000 A 
ATOM     16  C   UNL     1      -4.384  -3.942  -1.430  0.00  0.00    +0.000 A 
ATOM     17  C   UNL     1      -3.580  -2.816  -1.248  0.00  0.00    +0.000 A 
ENDBRANCH   4  12
TORSDOF 1
