REMARK  Name = Flavoxate
REMARK  7 active torsions:
REMARK  status: ('A' for Active; 'I' for Inactive)
REMARK    1  A    between atoms: C_1  and  C_2
REMARK    2  A    between atoms: C_3  and  C_24
REMARK    3  A    between atoms: C_10  and  C_11
REMARK    4  A    between atoms: C_11  and  O_13
REMARK    5  A    between atoms: O_13  and  C_14
REMARK    6  A    between atoms: C_14  and  C_15
REMARK    7  A    between atoms: C_15  and  N_16
REMARK                            x       y       z     vdW  Elec       q    Type
REMARK                         _______ _______ _______ _____ _____    ______ ____
ROOT
ATOM      1  C   UNL     1      -3.497   0.099   0.124  0.00  0.00    +0.000 C 
ATOM      2  C   UNL     1      -2.054  -0.288   0.054  0.00  0.00    +0.000 A 
ATOM      3  C   UNL     1      -1.577  -1.543   0.049  0.00  0.00    +0.000 A 
ATOM      4  O   UNL     1      -0.246  -1.879  -0.008  0.00  0.00    +0.000 OA
ATOM      5  C   UNL     1       0.708  -0.899  -0.017  0.00  0.00    +0.000 A 
ATOM      6  C   UNL     1       0.355   0.454  -0.004  0.00  0.00    +0.000 A 
ATOM      7  C   UNL     1       1.333   1.453   0.031  0.00  0.00    +0.000 A 
ATOM      8  C   UNL     1       2.678   1.093   0.053  0.00  0.00    +0.000 A 
ATOM      9  C   UNL     1       3.038  -0.261   0.017  0.00  0.00    +0.000 A 
ATOM     10  C   UNL     1       2.059  -1.276  -0.025  0.00  0.00    +0.000 A 
ATOM     11  C   UNL     1      -1.072   0.820  -0.011  0.00  0.00    +0.000 A 
ATOM     12  O   UNL     1      -1.427   1.992  -0.066  0.00  0.00    +0.000 OA
ENDROOT
BRANCH   3  13
ATOM     13  C   UNL     1      -2.452  -2.723   0.067  0.00  0.00    +0.000 A 
ATOM     14  C   UNL     1      -2.367  -3.669   1.095  0.00  0.00    +0.000 A 
ATOM     15  C   UNL     1      -3.166  -4.813   1.057  0.00  0.00    +0.000 A 
ATOM     16  C   UNL     1      -4.114  -4.972   0.046  0.00  0.00    +0.000 A 
ATOM     17  C   UNL     1      -4.224  -4.021  -0.965  0.00  0.00    +0.000 A 
ATOM     18  C   UNL     1      -3.376  -2.918  -0.970  0.00  0.00    +0.000 A 
ENDBRANCH   3  13
BRANCH  10  19
ATOM     19  C   UNL     1       2.526  -2.701  -0.070  0.00  0.00    +0.000 C 
ATOM     20  O   UNL     1       3.718  -2.994  -0.075  0.00  0.00    +0.000 OA
BRANCH  19  21
ATOM     21  O   UNL     1       1.508  -3.598  -0.108  0.00  0.00    +0.000 OA
BRANCH  21  22
ATOM     22  C   UNL     1       1.888  -4.985  -0.161  0.00  0.00    +0.000 C 
BRANCH  22  23
ATOM     23  C   UNL     1       0.636  -5.895  -0.207  0.00  0.00    +0.000 C 
BRANCH  23  24
ATOM     24  N   UNL     1       1.035  -7.312  -0.289  0.00  0.00    +0.000 NA
ATOM     25  C   UNL     1       0.048  -8.238   0.285  0.00  0.00    +0.000 C 
ATOM     26  C   UNL     1       0.625  -9.662   0.305  0.00  0.00    +0.000 C 
ATOM     27  C   UNL     1       1.045 -10.116  -1.091  0.00  0.00    +0.000 C 
ATOM     28  C   UNL     1       1.948  -9.076  -1.743  0.00  0.00    +0.000 C 
ATOM     29  C   UNL     1       1.319  -7.688  -1.683  0.00  0.00    +0.000 C 
ENDBRANCH  23  24
ENDBRANCH  22  23
ENDBRANCH  21  22
ENDBRANCH  19  21
ENDBRANCH  10  19
TORSDOF 6
