REMARK  Name = Flecainide
REMARK  9 active torsions:
REMARK  status: ('A' for Active; 'I' for Inactive)
REMARK    1  A    between atoms: C_2  and  C_5
REMARK    2  A    between atoms: C_5  and  O_6
REMARK    3  A    between atoms: O_6  and  C_7
REMARK    4  A    between atoms: C_9  and  C_10
REMARK    5  A    between atoms: N_12  and  C_13
REMARK    6  A    between atoms: C_13  and  C_14
REMARK    7  A    between atoms: C_20  and  O_21
REMARK    8  A    between atoms: O_21  and  C_22
REMARK    9  A    between atoms: C_22  and  C_23
REMARK                            x       y       z     vdW  Elec       q    Type
REMARK                         _______ _______ _______ _____ _____    ______ ____
ROOT
ATOM      1  C   UNL     1       5.013  -2.675  -0.371  0.00  0.00    +0.000 A 
ATOM      2  C   UNL     1       6.187  -2.945   0.340  0.00  0.00    +0.000 A 
ATOM      3  C   UNL     1       6.991  -4.056   0.014  0.00  0.00    +0.000 A 
ATOM      4  C   UNL     1       6.530  -4.973  -0.952  0.00  0.00    +0.000 A 
ATOM      5  C   UNL     1       5.364  -4.685  -1.666  0.00  0.00    +0.000 A 
ATOM      6  C   UNL     1       4.620  -3.535  -1.390  0.00  0.00    +0.000 A 
ENDROOT
BRANCH   3   7
ATOM      7  C   UNL     1       8.360  -4.137   0.642  0.00  0.00    +0.000 C 
ATOM      8  O   UNL     1       8.714  -3.300   1.471  0.00  0.00    +0.000 OA
ATOM      9  N   UNL     1       9.198  -5.136   0.203  0.00  0.00    +0.000 N 
ATOM     10  H   UNL     1       8.840  -5.793  -0.479  0.00  0.00    +0.000 HD
BRANCH   9  11
ATOM     11  C   UNL     1      10.551  -5.322   0.697  0.00  0.00    +0.000 C 
BRANCH  11  12
ATOM     12  C   UNL     1      11.234  -6.569   0.089  0.00  0.00    +0.000 C 
ATOM     13  C   UNL     1      10.557  -7.844   0.619  0.00  0.00    +0.000 C 
ATOM     14  C   UNL     1      11.214  -9.103   0.065  0.00  0.00    +0.000 C 
ATOM     15  C   UNL     1      12.719  -9.065   0.302  0.00  0.00    +0.000 C 
ATOM     16  C   UNL     1      13.322  -7.758  -0.208  0.00  0.00    +0.000 C 
ATOM     17  N   UNL     1      12.671  -6.601   0.411  0.00  0.00    +0.000 NA
ATOM     18  H   UNL     1      13.117  -5.745   0.081  0.00  0.00    +0.000 HD
ENDBRANCH  11  12
ENDBRANCH   9  11
ENDBRANCH   3   7
BRANCH   1  19
ATOM     19  O   UNL     1       4.396  -1.486  -0.096  0.00  0.00    +0.000 OA
BRANCH  19  20
ATOM     20  C   UNL     1       2.965  -1.461  -0.210  0.00  0.00    +0.000 C 
BRANCH  20  22
ATOM     21  F   UNL     1       1.087  -0.037  -0.043  0.00  0.00    +0.000 F 
ATOM     22  C   UNL     1       2.442  -0.042  -0.029  0.00  0.00    +0.000 C 
ATOM     23  F   UNL     1       2.852   0.771  -1.028  0.00  0.00    +0.000 F 
ATOM     24  F   UNL     1       2.835   0.497   1.144  0.00  0.00    +0.000 F 
ENDBRANCH  20  22
ENDBRANCH  19  20
ENDBRANCH   1  19
BRANCH   4  25
ATOM     25  O   UNL     1       7.263  -6.113  -1.145  0.00  0.00    +0.000 OA
BRANCH  25  26
ATOM     26  C   UNL     1       6.776  -7.100  -2.059  0.00  0.00    +0.000 C 
BRANCH  26  27
ATOM     27  C   UNL     1       7.690  -8.314  -2.029  0.00  0.00    +0.000 C 
ATOM     28  F   UNL     1       8.965  -7.968  -2.321  0.00  0.00    +0.000 F 
ATOM     29  F   UNL     1       7.687  -8.908  -0.817  0.00  0.00    +0.000 F 
ATOM     30  F   UNL     1       7.295  -9.232  -2.937  0.00  0.00    +0.000 F 
ENDBRANCH  26  27
ENDBRANCH  25  26
ENDBRANCH   4  25
TORSDOF 9
