REMARK  Name = Flibanserin
REMARK  5 active torsions:
REMARK  status: ('A' for Active; 'I' for Inactive)
REMARK    1  A    between atoms: C_2  and  C_5
REMARK    2  A    between atoms: C_7  and  N_11
REMARK    3  A    between atoms: N_14  and  C_15
REMARK    4  A    between atoms: C_15  and  C_16
REMARK    5  A    between atoms: C_16  and  N_17
REMARK                            x       y       z     vdW  Elec       q    Type
REMARK                         _______ _______ _______ _____ _____    ______ ____
ROOT
ATOM      1  N   UNL     1       2.347  -4.828  -1.233  0.00  0.00    +0.000 N 
ATOM      2  C   UNL     1       0.963  -5.184  -0.922  0.00  0.00    +0.000 C 
ATOM      3  C   UNL     1       0.718  -6.618  -1.475  0.00  0.00    +0.000 C 
ATOM      4  N   UNL     1       1.694  -7.691  -0.956  0.00  0.00    +0.000 NA
ATOM      5  C   UNL     1       3.028  -7.187  -1.376  0.00  0.00    +0.000 C 
ATOM      6  C   UNL     1       3.351  -5.803  -0.766  0.00  0.00    +0.000 C 
ENDROOT
BRANCH   1   9
ATOM      7  C   UNL     1       2.746  -1.142  -1.013  0.00  0.00    +0.000 A 
ATOM      8  C   UNL     1       2.225  -2.434  -0.814  0.00  0.00    +0.000 A 
ATOM      9  C   UNL     1       2.727  -3.534  -1.511  0.00  0.00    +0.000 A 
ATOM     10  C   UNL     1       3.654  -3.288  -2.532  0.00  0.00    +0.000 A 
ATOM     11  C   UNL     1       4.155  -2.008  -2.775  0.00  0.00    +0.000 A 
ATOM     12  C   UNL     1       3.727  -0.941  -1.993  0.00  0.00    +0.000 A 
BRANCH   7  14
ATOM     13  F   UNL     1       0.932   0.065  -0.038  0.00  0.00    +0.000 F 
ATOM     14  C   UNL     1       2.288  -0.024  -0.117  0.00  0.00    +0.000 C 
ATOM     15  F   UNL     1       2.723   1.206  -0.508  0.00  0.00    +0.000 F 
ATOM     16  F   UNL     1       2.726  -0.183   1.164  0.00  0.00    +0.000 F 
ENDBRANCH   7  14
ENDBRANCH   1   9
BRANCH   4  17
ATOM     17  C   UNL     1       1.682  -8.022   0.587  0.00  0.00    +0.000 C 
BRANCH  17  18
ATOM     18  C   UNL     1       2.980  -9.144   1.263  0.00  0.00    +0.000 C 
BRANCH  18  19
ATOM     19  N   UNL     1       3.069  -9.850   2.775  0.00  0.00    +0.000 N 
ATOM     20  C   UNL     1       2.165 -10.890   2.654  0.00  0.00    +0.000 A 
ATOM     21  O   UNL     1       2.387 -11.807   1.863  0.00  0.00    +0.000 OA
ATOM     22  N   UNL     1       1.689 -10.974   3.920  0.00  0.00    +0.000 N 
ATOM     23  C   UNL     1       2.883 -11.251   4.596  0.00  0.00    +0.000 A 
ATOM     24  C   UNL     1       2.479 -12.107   5.740  0.00  0.00    +0.000 A 
ATOM     25  C   UNL     1       3.370 -12.804   6.472  0.00  0.00    +0.000 A 
ATOM     26  C   UNL     1       4.613 -12.594   5.958  0.00  0.00    +0.000 A 
ATOM     27  C   UNL     1       4.877 -11.566   4.750  0.00  0.00    +0.000 A 
ATOM     28  C   UNL     1       4.109 -10.743   3.814  0.00  0.00    +0.000 A 
ATOM     29  H   UNL     1       1.492 -10.020   4.205  0.00  0.00    +0.000 HD
ENDBRANCH  18  19
ENDBRANCH  17  18
ENDBRANCH   4  17
TORSDOF 5
