REMARK  Name = Floctafenine
REMARK  10 active torsions:
REMARK  status: ('A' for Active; 'I' for Inactive)
REMARK    1  A    between atoms: O_1  and  C_2
REMARK    2  A    between atoms: C_2  and  C_3
REMARK    3  A    between atoms: C_3  and  O_4
REMARK    4  A    between atoms: C_3  and  C_5
REMARK    5  A    between atoms: C_5  and  O_6
REMARK    6  A    between atoms: O_6  and  C_7
REMARK    7  A    between atoms: C_7  and  C_9
REMARK    8  A    between atoms: C_14  and  N_15
REMARK    9  A    between atoms: N_15  and  C_16
REMARK   10  A    between atoms: C_21  and  C_26
REMARK                            x       y       z     vdW  Elec       q    Type
REMARK                         _______ _______ _______ _____ _____    ______ ____
ROOT
ATOM      1  C   UNL     1       6.658   4.206  -0.886  0.00  0.00    +0.000 A 
ATOM      2  C   UNL     1       7.757   4.632  -1.773  0.00  0.00    +0.000 A 
ATOM      3  C   UNL     1       8.316   5.923  -1.810  0.00  0.00    +0.000 A 
ATOM      4  C   UNL     1       7.623   6.908  -1.129  0.00  0.00    +0.000 A 
ATOM      5  C   UNL     1       6.464   6.490  -0.205  0.00  0.00    +0.000 A 
ATOM      6  C   UNL     1       5.984   4.975   0.036  0.00  0.00    +0.000 A 
ENDROOT
BRANCH   1   7
ATOM      7  C   UNL     1       6.299   2.840  -0.751  0.00  0.00    +0.000 C 
ATOM      8  O   UNL     1       7.141   2.012  -0.470  0.00  0.00    +0.000 OA
BRANCH   7   9
ATOM      9  O   UNL     1       4.956   2.708  -0.895  0.00  0.00    +0.000 OA
BRANCH   9  10
ATOM     10  C   UNL     1       4.448   1.432  -0.529  0.00  0.00    +0.000 C 
BRANCH  10  11
ATOM     11  C   UNL     1       2.856   1.341  -0.730  0.00  0.00    +0.000 C 
BRANCH  11  12
ATOM     12  O   UNL     1       1.892   2.225  -0.161  0.00  0.00    +0.000 OA
ATOM     13  H   UNL     1       1.575   1.718   0.625  0.00  0.00    +0.000 HD
ENDBRANCH  11  12
BRANCH  11  14
ATOM     14  C   UNL     1       2.378  -0.029  -0.267  0.00  0.00    +0.000 C 
BRANCH  14  15
ATOM     15  O   UNL     1       0.958  -0.001  -0.152  0.00  0.00    +0.000 OA
ATOM     16  H   UNL     1       0.639  -0.868   0.136  0.00  0.00    +0.000 HD
ENDBRANCH  14  15
ENDBRANCH  11  14
ENDBRANCH  10  11
ENDBRANCH   9  10
ENDBRANCH   7   9
ENDBRANCH   1   7
BRANCH   6  17
ATOM     17  N   UNL     1       4.782   4.108   1.087  0.00  0.00    +0.000 N 
ATOM     18  H   UNL     1       4.446   5.144   1.277  0.00  0.00    +0.000 HD
BRANCH  17  19
ATOM     19  C   UNL     1       4.039   2.767   2.323  0.00  0.00    +0.000 A 
ATOM     20  C   UNL     1       3.224   3.824   1.948  0.00  0.00    +0.000 A 
ATOM     21  C   UNL     1       2.522   2.837   1.757  0.00  0.00    +0.000 A 
ATOM     22  N   UNL     1       1.489   2.456   2.463  0.00  0.00    +0.000 NA
ATOM     23  C   UNL     1       1.539   1.224   2.551  0.00  0.00    +0.000 A 
ATOM     24  C   UNL     1      -0.078   0.614   2.518  0.00  0.00    +0.000 A 
ATOM     25  C   UNL     1      -0.624  -0.644   2.776  0.00  0.00    +0.000 A 
ATOM     26  C   UNL     1       0.481  -1.399   2.878  0.00  0.00    +0.000 A 
ATOM     27  C   UNL     1       2.083  -0.605   2.837  0.00  0.00    +0.000 A 
ATOM     28  C   UNL     1       3.047   1.004   2.588  0.00  0.00    +0.000 A 
BRANCH  24  29
ATOM     29  C   UNL     1      -1.138   1.592   1.920  0.00  0.00    +0.000 C 
ATOM     30  F   UNL     1      -1.822   1.115   0.819  0.00  0.00    +0.000 F 
ATOM     31  F   UNL     1      -2.126   1.898   2.812  0.00  0.00    +0.000 F 
ATOM     32  F   UNL     1      -0.619   2.766   1.509  0.00  0.00    +0.000 F 
ENDBRANCH  24  29
ENDBRANCH  17  19
ENDBRANCH   6  17
TORSDOF 10
