REMARK  Name = Florbetapir (18F)
REMARK  13 active torsions:
REMARK  status: ('A' for Active; 'I' for Inactive)
REMARK    1  A    between atoms: N_2  and  C_3
REMARK    2  A    between atoms: N_2  and  C_48
REMARK    3  A    between atoms: C_8  and  C_9
REMARK    4  A    between atoms: C_11  and  C_13
REMARK    5  A    between atoms: C_17  and  O_18
REMARK    6  A    between atoms: O_18  and  C_19
REMARK    7  A    between atoms: C_19  and  C_22
REMARK    8  A    between atoms: C_22  and  O_25
REMARK    9  A    between atoms: O_25  and  C_26
REMARK   10  A    between atoms: C_26  and  C_29
REMARK   11  A    between atoms: C_29  and  O_32
REMARK   12  A    between atoms: O_32  and  C_33
REMARK   13  A    between atoms: C_33  and  C_36
REMARK                            x       y       z     vdW  Elec       q    Type
REMARK                         _______ _______ _______ _____ _____    ______ ____
ROOT
ATOM      1  C   UNL     1       5.472   2.869   6.594  0.00  0.00    +0.000 A 
ATOM      2  C   UNL     1       5.598   2.283   7.849  0.00  0.00    +0.000 A 
ATOM      3  N   UNL     1       6.194   2.876   8.914  0.00  0.00    +0.000 NA
ATOM      4  C   UNL     1       6.687   4.120   8.734  0.00  0.00    +0.000 A 
ATOM      5  C   UNL     1       6.604   4.781   7.516  0.00  0.00    +0.000 A 
ATOM      6  C   UNL     1       5.984   4.153   6.441  0.00  0.00    +0.000 A 
ENDROOT
BRANCH   1   8
ATOM      7  C   UNL     1       5.107   2.237   4.230  0.00  0.00    +0.000 C 
ATOM      8  C   UNL     1       4.732   2.211   5.516  0.00  0.00    +0.000 C 
BRANCH   7  12
ATOM      9  C   UNL     1       2.792   0.758   0.904  0.00  0.00    +0.000 A 
ATOM     10  C   UNL     1       4.015   1.411   0.719  0.00  0.00    +0.000 A 
ATOM     11  C   UNL     1       4.787   1.837   1.806  0.00  0.00    +0.000 A 
ATOM     12  C   UNL     1       4.320   1.679   3.114  0.00  0.00    +0.000 A 
ATOM     13  C   UNL     1       3.088   1.039   3.298  0.00  0.00    +0.000 A 
ATOM     14  C   UNL     1       2.332   0.589   2.209  0.00  0.00    +0.000 A 
BRANCH   9  16
ATOM     15  H   UNL     1       1.133  -0.061   0.051  0.00  0.00    +0.000 HD
ATOM     16  N   UNL     1       2.064   0.272  -0.183  0.00  0.00    +0.000 N 
ATOM     17  C   UNL     1       2.778  -0.596  -1.111  0.00  0.00    +0.000 C 
ENDBRANCH   9  16
ENDBRANCH   7  12
ENDBRANCH   1   8
BRANCH   4  18
ATOM     18  O   UNL     1       7.253   4.649   9.862  0.00  0.00    +0.000 OA
BRANCH  18  19
ATOM     19  C   UNL     1       7.765   5.974   9.736  0.00  0.00    +0.000 C 
BRANCH  19  20
ATOM     20  C   UNL     1       8.345   6.422  11.067  0.00  0.00    +0.000 C 
BRANCH  20  21
ATOM     21  O   UNL     1       8.866   7.746  10.932  0.00  0.00    +0.000 OA
BRANCH  21  22
ATOM     22  C   UNL     1       9.422   8.196  12.166  0.00  0.00    +0.000 C 
BRANCH  22  23
ATOM     23  C   UNL     1       9.971   9.605  11.999  0.00  0.00    +0.000 C 
BRANCH  23  24
ATOM     24  O   UNL     1      10.524  10.043  13.241  0.00  0.00    +0.000 OA
BRANCH  24  25
ATOM     25  C   UNL     1      11.051  11.364  13.128  0.00  0.00    +0.000 C 
BRANCH  25  26
ATOM     26  C   UNL     1      11.630  11.799  14.460  0.00  0.00    +0.000 C 
ATOM     27  F   UNL     1      12.129  13.058  14.339  0.00  0.00    +0.000 F 
ENDBRANCH  25  26
ENDBRANCH  24  25
ENDBRANCH  23  24
ENDBRANCH  22  23
ENDBRANCH  21  22
ENDBRANCH  20  21
ENDBRANCH  19  20
ENDBRANCH  18  19
ENDBRANCH   4  18
TORSDOF 12
