REMARK  Name = Florbetaben (18F)
REMARK  13 active torsions:
REMARK  status: ('A' for Active; 'I' for Inactive)
REMARK    1  A    between atoms: C_1  and  N_2
REMARK    2  A    between atoms: N_2  and  C_3
REMARK    3  A    between atoms: C_6  and  C_7
REMARK    4  A    between atoms: C_8  and  C_9
REMARK    5  A    between atoms: C_12  and  O_13
REMARK    6  A    between atoms: O_13  and  C_14
REMARK    7  A    between atoms: C_14  and  C_15
REMARK    8  A    between atoms: C_15  and  O_16
REMARK    9  A    between atoms: O_16  and  C_17
REMARK   10  A    between atoms: C_17  and  C_18
REMARK   11  A    between atoms: C_18  and  O_19
REMARK   12  A    between atoms: O_19  and  C_20
REMARK   13  A    between atoms: C_20  and  C_21
REMARK                            x       y       z     vdW  Elec       q    Type
REMARK                         _______ _______ _______ _____ _____    ______ ____
ROOT
ATOM      1  C   UNL     1       5.775  -1.583  -7.074  0.00  0.00    +0.000 A 
ATOM      2  C   UNL     1       6.061  -0.698  -8.119  0.00  0.00    +0.000 A 
ATOM      3  C   UNL     1       6.639  -1.170  -9.300  0.00  0.00    +0.000 A 
ATOM      4  C   UNL     1       6.984  -2.517  -9.429  0.00  0.00    +0.000 A 
ATOM      5  C   UNL     1       6.671  -3.403  -8.398  0.00  0.00    +0.000 A 
ATOM      6  C   UNL     1       6.061  -2.940  -7.232  0.00  0.00    +0.000 A 
ENDROOT
BRANCH   1   8
ATOM      7  C   UNL     1       5.427  -1.434  -4.625  0.00  0.00    +0.000 C 
ATOM      8  C   UNL     1       5.088  -1.089  -5.883  0.00  0.00    +0.000 C 
BRANCH   7  12
ATOM      9  C   UNL     1       3.222  -0.335  -1.088  0.00  0.00    +0.000 A 
ATOM     10  C   UNL     1       4.353  -1.155  -1.019  0.00  0.00    +0.000 A 
ATOM     11  C   UNL     1       5.097  -1.468  -2.165  0.00  0.00    +0.000 A 
ATOM     12  C   UNL     1       4.697  -1.000  -3.423  0.00  0.00    +0.000 A 
ATOM     13  C   UNL     1       3.575  -0.169  -3.484  0.00  0.00    +0.000 A 
ATOM     14  C   UNL     1       2.844   0.147  -2.338  0.00  0.00    +0.000 A 
BRANCH   9  16
ATOM     15  C   UNL     1       1.068   0.057   0.059  0.00  0.00    +0.000 C 
ATOM     16  N   UNL     1       2.505  -0.074   0.062  0.00  0.00    +0.000 N 
ATOM     17  H   UNL     1       3.024   0.237   0.875  0.00  0.00    +0.000 HD
ENDBRANCH   9  16
ENDBRANCH   7  12
ENDBRANCH   1   8
BRANCH   4  18
ATOM     18  O   UNL     1       7.627  -2.854 -10.590  0.00  0.00    +0.000 OA
BRANCH  18  19
ATOM     19  C   UNL     1       8.114  -4.196 -10.667  0.00  0.00    +0.000 C 
BRANCH  19  20
ATOM     20  C   UNL     1       8.912  -4.365 -11.952  0.00  0.00    +0.000 C 
BRANCH  20  21
ATOM     21  O   UNL     1       9.350  -5.719 -12.069  0.00  0.00    +0.000 OA
BRANCH  21  22
ATOM     22  C   UNL     1      10.086  -5.910 -13.277  0.00  0.00    +0.000 C 
BRANCH  22  23
ATOM     23  C   UNL     1      10.530  -7.362 -13.381  0.00  0.00    +0.000 C 
BRANCH  23  24
ATOM     24  O   UNL     1      11.265  -7.544 -14.591  0.00  0.00    +0.000 OA
BRANCH  24  25
ATOM     25  C   UNL     1      11.700  -8.896 -14.725  0.00  0.00    +0.000 C 
BRANCH  25  26
ATOM     26  C   UNL     1      12.477  -9.058 -16.017  0.00  0.00    +0.000 C 
ATOM     27  F   UNL     1      12.885 -10.350 -16.133  0.00  0.00    +0.000 F 
ENDBRANCH  25  26
ENDBRANCH  24  25
ENDBRANCH  23  24
ENDBRANCH  22  23
ENDBRANCH  21  22
ENDBRANCH  20  21
ENDBRANCH  19  20
ENDBRANCH  18  19
ENDBRANCH   4  18
TORSDOF 12
