REMARK  Name = Flortaucipir F-18
REMARK  1 active torsions:
REMARK  status: ('A' for Active; 'I' for Inactive)
REMARK    1  A    between atoms: C_5  and  C_8
REMARK                            x       y       z     vdW  Elec       q    Type
REMARK                         _______ _______ _______ _____ _____    ______ ____
ROOT
ATOM      1  C   UNL     1       6.398   0.376  -0.571  0.00  0.00    +0.000 A 
ATOM      2  C   UNL     1       7.079  -0.652  -1.162  0.00  0.00    +0.000 A 
ATOM      3  C   UNL     1       8.308  -0.912  -0.528  0.00  0.00    +0.000 A 
ATOM      4  C   UNL     1       8.794  -0.062   0.586  0.00  0.00    +0.000 A 
ATOM      5  C   UNL     1       8.628   1.172  -0.076  0.00  0.00    +0.000 A 
ATOM      6  N   UNL     1       9.884   1.583   0.392  0.00  0.00    +0.000 N 
ATOM      7  C   UNL     1       9.646   1.811   1.712  0.00  0.00    +0.000 A 
ATOM      8  C   UNL     1       8.756   0.770   2.012  0.00  0.00    +0.000 A 
ATOM      9  C   UNL     1       8.059   1.075   3.239  0.00  0.00    +0.000 A 
ATOM     10  N   UNL     1       8.213   2.366   3.833  0.00  0.00    +0.000 NA
ATOM     11  C   UNL     1       9.147   3.251   3.417  0.00  0.00    +0.000 A 
ATOM     12  C   UNL     1      10.009   2.955   2.410  0.00  0.00    +0.000 A 
ATOM     13  C   UNL     1       7.213   1.429  -0.041  0.00  0.00    +0.000 A 
ATOM     14  H   UNL     1      10.702   1.003   0.224  0.00  0.00    +0.000 HD
ENDROOT
BRANCH   1  19
ATOM     15  F   UNL     1       0.937  -0.087   0.079  0.00  0.00    +0.000 F 
ATOM     16  C   UNL     1       2.261   0.006   0.007  0.00  0.00    +0.000 A 
ATOM     17  C   UNL     1       2.838   1.261  -0.031  0.00  0.00    +0.000 A 
ATOM     18  C   UNL     1       4.184   1.377  -0.260  0.00  0.00    +0.000 A 
ATOM     19  C   UNL     1       4.973   0.228  -0.365  0.00  0.00    +0.000 A 
ATOM     20  C   UNL     1       4.306  -1.003  -0.202  0.00  0.00    +0.000 A 
ATOM     21  N   UNL     1       2.977  -1.149  -0.057  0.00  0.00    +0.000 NA
ENDBRANCH   1  19
TORSDOF 1
