REMARK  Name = Flosequinan
REMARK  3 active torsions:
REMARK  status: ('A' for Active; 'I' for Inactive)
REMARK    1  A    between atoms: C_1  and  N_2
REMARK    2  A    between atoms: C_4  and  S_14
REMARK    3  A    between atoms: S_14  and  C_15
REMARK                            x       y       z     vdW  Elec       q    Type
REMARK                         _______ _______ _______ _____ _____    ______ ____
ROOT
ATOM      1  C   UNL     1       0.907  -0.020   0.049  0.00  0.00    +0.000 C 
ATOM      2  N   UNL     1       2.371  -0.043   0.111  0.00  0.00    +0.000 N 
ATOM      3  C   UNL     1       3.100  -1.220   0.003  0.00  0.00    +0.000 A 
ATOM      4  C   UNL     1       4.437  -1.325   0.009  0.00  0.00    +0.000 A 
ATOM      5  C   UNL     1       5.220  -0.074   0.095  0.00  0.00    +0.000 A 
ATOM      6  O   UNL     1       6.452  -0.073   0.072  0.00  0.00    +0.000 OA
ATOM      7  C   UNL     1       4.470   1.201   0.139  0.00  0.00    +0.000 A 
ATOM      8  C   UNL     1       3.058   1.189   0.154  0.00  0.00    +0.000 A 
ATOM      9  C   UNL     1       2.411   2.431   0.185  0.00  0.00    +0.000 A 
ATOM     10  C   UNL     1       3.136   3.606   0.001  0.00  0.00    +0.000 A 
ATOM     11  F   UNL     1       2.488   4.776  -0.039  0.00  0.00    +0.000 F 
ATOM     12  C   UNL     1       4.516   3.589  -0.131  0.00  0.00    +0.000 A 
ATOM     13  C   UNL     1       5.195   2.397   0.069  0.00  0.00    +0.000 A 
ENDROOT
BRANCH   4  14
ATOM     14  S   UNL     1       5.246  -2.885  -0.222  0.00  0.00    +0.000 S 
ATOM     15  C   UNL     1       6.227  -2.946   1.297  0.00  0.00    +0.000 C 
ATOM     16  O   UNL     1       4.191  -3.949  -0.138  0.00  0.00    +0.000 OA
ENDBRANCH   4  14
TORSDOF 1
