REMARK  Name = Floxuridine
REMARK  4 active torsions:
REMARK  status: ('A' for Active; 'I' for Inactive)
REMARK    1  A    between atoms: O5*_1  and  C5*_2
REMARK    2  A    between atoms: C5*_2  and  C4*_3
REMARK    3  A    between atoms: C1*_5  and  N_9
REMARK    4  A    between atoms: C3*_7  and  O3*_8
REMARK                            x       y       z     vdW  Elec       q    Type
REMARK                         _______ _______ _______ _____ _____    ______ ____
ROOT
ATOM      1  C4* UNL     1       2.991   1.450   0.134  0.00  0.00    +0.000 C 
ATOM      2  O4* UNL     1       4.006   1.314  -0.898  0.00  0.00    +0.000 OA
ATOM      3  C1* UNL     1       3.861   2.377  -1.864  0.00  0.00    +0.000 C 
ATOM      4  C2* UNL     1       2.766   3.322  -1.399  0.00  0.00    +0.000 C 
ATOM      5  C3* UNL     1       2.573   2.920   0.040  0.00  0.00    +0.000 C 
ENDROOT
BRANCH   3   6
ATOM      6  N   UNL     1       3.663   1.859  -3.223  0.00  0.00    +0.000 N 
ATOM      7  C   UNL     1       2.458   1.298  -3.627  0.00  0.00    +0.000 A 
ATOM      8  C   UNL     1       2.308   0.753  -4.838  0.00  0.00    +0.000 A 
ATOM      9  F   UNL     1       1.171   0.144  -5.222  0.00  0.00    +0.000 F 
ATOM     10  C   UNL     1       3.417   0.807  -5.800  0.00  0.00    +0.000 A 
ATOM     11  O   UNL     1       3.392   0.217  -6.884  0.00  0.00    +0.000 OA
ATOM     12  N   UNL     1       4.480   1.566  -5.404  0.00  0.00    +0.000 N 
ATOM     13  C   UNL     1       4.728   1.987  -4.117  0.00  0.00    +0.000 A 
ATOM     14  O   UNL     1       5.827   2.448  -3.834  0.00  0.00    +0.000 OA
ATOM     15  H   UNL     1       5.251   1.642  -6.050  0.00  0.00    +0.000 HD
ENDBRANCH   3   6
BRANCH   5  16
ATOM     16  O3* UNL     1       3.555   3.697   0.779  0.00  0.00    +0.000 OA
ATOM     17  H3* UNL     1       4.444   3.349   0.566  0.00  0.00    +0.000 HD
ENDBRANCH   5  16
BRANCH   1  18
ATOM     18  C5* UNL     1       2.187   0.148  -0.019  0.00  0.00    +0.000 C 
BRANCH  18  19
ATOM     19  O5* UNL     1       0.781   0.206   0.025  0.00  0.00    +0.000 OA
ATOM     20  H5* UNL     1       0.496  -0.731  -0.042  0.00  0.00    +0.000 HD
ENDBRANCH  18  19
ENDBRANCH   1  18
TORSDOF 4
