REMARK  Name = Fluconazole
REMARK  6 active torsions:
REMARK  status: ('A' for Active; 'I' for Inactive)
REMARK    1  A    between atoms: O_1  and  C_2
REMARK    2  A    between atoms: C_2  and  C_3
REMARK    3  A    between atoms: C_2  and  C_9
REMARK    4  A    between atoms: C_2  and  C_15
REMARK    5  A    between atoms: C_3  and  N_4
REMARK    6  A    between atoms: C_9  and  N_10
REMARK                            x       y       z     vdW  Elec       q    Type
REMARK                         _______ _______ _______ _____ _____    ______ ____
ROOT
ATOM      1  C   UNL     1       2.500  -0.038   0.001  0.00  0.00    +0.000 C 
ENDROOT
BRANCH   1   2
ATOM      2  C   UNL     1       2.925   0.693  -1.296  0.00  0.00    +0.000 A 
ATOM      3  C   UNL     1       3.566   0.082  -2.386  0.00  0.00    +0.000 A 
ATOM      4  F   UNL     1       3.867  -1.223  -2.375  0.00  0.00    +0.000 F 
ATOM      5  C   UNL     1       3.913   0.791  -3.541  0.00  0.00    +0.000 A 
ATOM      6  C   UNL     1       3.661   2.150  -3.613  0.00  0.00    +0.000 A 
ATOM      7  F   UNL     1       3.995   2.837  -4.713  0.00  0.00    +0.000 F 
ATOM      8  C   UNL     1       3.040   2.801  -2.572  0.00  0.00    +0.000 A 
ATOM      9  C   UNL     1       2.634   2.061  -1.463  0.00  0.00    +0.000 A 
ENDBRANCH   1   2
BRANCH   1  10
ATOM     10  O   UNL     1       1.056  -0.049  -0.022  0.00  0.00    +0.000 OA
ATOM     11  H   UNL     1       0.758  -0.569   0.754  0.00  0.00    +0.000 HD
ENDBRANCH   1  10
BRANCH   1  12
ATOM     12  C   UNL     1       3.027   0.689   1.296  0.00  0.00    +0.000 C 
BRANCH  12  13
ATOM     13  N   UNL     1       2.534   2.032   1.526  0.00  0.00    +0.000 N 
ATOM     14  C   UNL     1       1.240   2.437   1.676  0.00  0.00    +0.000 A 
ATOM     15  N   UNL     1       1.190   3.751   1.622  0.00  0.00    +0.000 NA
ATOM     16  C   UNL     1       2.501   4.106   1.488  0.00  0.00    +0.000 A 
ATOM     17  N   UNL     1       3.368   3.089   1.468  0.00  0.00    +0.000 NA
ENDBRANCH  12  13
ENDBRANCH   1  12
BRANCH   1  18
ATOM     18  C   UNL     1       2.958  -1.532   0.012  0.00  0.00    +0.000 C 
BRANCH  18  19
ATOM     19  N   UNL     1       2.523  -2.340   1.137  0.00  0.00    +0.000 N 
ATOM     20  C   UNL     1       2.705  -3.677   1.305  0.00  0.00    +0.000 A 
ATOM     21  N   UNL     1       2.311  -4.014   2.516  0.00  0.00    +0.000 NA
ATOM     22  C   UNL     1       1.830  -2.846   3.025  0.00  0.00    +0.000 A 
ATOM     23  N   UNL     1       1.850  -1.815   2.174  0.00  0.00    +0.000 NA
ENDBRANCH  18  19
ENDBRANCH   1  18
TORSDOF 6
