REMARK  Name = Fluclorolone acetonide
REMARK  7 active torsions:
REMARK  status: ('A' for Active; 'I' for Inactive)
REMARK    1  A    between atoms: C_17  and  C_18
REMARK    2  A    between atoms: C_24  and  C_25
REMARK    3  A    between atoms: C_26  and  C_32
REMARK    4  A    between atoms: C_28  and  C_29
REMARK    5  A    between atoms: C_28  and  C_30
REMARK    6  A    between atoms: C_32  and  C_34
REMARK    7  A    between atoms: C_34  and  O_35
REMARK                            x       y       z     vdW  Elec       q    Type
REMARK                         _______ _______ _______ _____ _____    ______ ____
ROOT
ATOM      1  C   UNL     1       2.289  -0.079  -0.032  0.00  0.00    +0.000 C 
ATOM      2  C   UNL     1       2.310   0.005   1.483  0.00  0.00    +0.000 C 
ATOM      3  C   UNL     1       3.762  -0.152   1.812  0.00  0.00    +0.000 C 
ATOM      4  C   UNL     1       4.492   1.235   1.363  0.00  0.00    +0.000 C 
ATOM      5  C   UNL     1       3.796   2.605   1.721  0.00  0.00    +0.000 C 
ATOM      6  C   UNL     1       4.498   3.900   1.315  0.00  0.00    +0.000 C 
ATOM      7  F   UNL     1       4.520   4.188  -0.007  0.00  0.00    +0.000 F 
ATOM      8  C   UNL     1       5.850   3.796   1.919  0.00  0.00    +0.000 C 
ATOM      9  C   UNL     1       6.461   4.876   2.453  0.00  0.00    +0.000 C 
ATOM     10  C   UNL     1       6.483   5.768   1.335  0.00  0.00    +0.000 C 
ATOM     11  O   UNL     1       5.901   6.877   1.382  0.00  0.00    +0.000 OA
ATOM     12  C   UNL     1       7.437   5.165   0.342  0.00  0.00    +0.000 C 
ATOM     13  C   UNL     1       7.562   3.765   0.248  0.00  0.00    +0.000 C 
ATOM     14  C   UNL     1       6.822   2.741   1.432  0.00  0.00    +0.000 C 
ATOM     15  C   UNL     1       7.732   2.548   2.693  0.00  0.00    +0.000 C 
ATOM     16  C   UNL     1       6.027   1.237   1.522  0.00  0.00    +0.000 C 
ATOM     17 CL   UNL     1       5.892   0.712   3.491  0.00  0.00    +0.000 Cl
ATOM     18  C   UNL     1       6.696  -0.008   0.831  0.00  0.00    +0.000 C 
ATOM     19 CL   UNL     1       8.441  -0.262   1.245  0.00  0.00    +0.000 Cl
ATOM     20  C   UNL     1       5.896  -1.267   1.091  0.00  0.00    +0.000 C 
ATOM     21  C   UNL     1       4.267  -1.386   0.938  0.00  0.00    +0.000 C 
ATOM     22  C   UNL     1       4.271  -2.867   1.417  0.00  0.00    +0.000 C 
ATOM     23  C   UNL     1       3.188  -1.212  -0.419  0.00  0.00    +0.000 C 
ATOM     24  O   UNL     1       4.008  -0.666  -1.449  0.00  0.00    +0.000 OA
ATOM     25  C   UNL     1       3.828   0.726  -1.813  0.00  0.00    +0.000 C 
ATOM     26  C   UNL     1       5.501   0.764  -1.909  0.00  0.00    +0.000 C 
ATOM     27  C   UNL     1       4.070   2.290  -1.528  0.00  0.00    +0.000 C 
ATOM     28  O   UNL     1       2.722   0.970  -0.854  0.00  0.00    +0.000 OA
ENDROOT
BRANCH  23  29
ATOM     29  C   UNL     1       1.970  -2.303  -0.909  0.00  0.00    +0.000 C 
ATOM     30  O   UNL     1       2.140  -3.527  -0.908  0.00  0.00    +0.000 OA
BRANCH  29  31
ATOM     31  C   UNL     1       0.526  -1.741  -1.502  0.00  0.00    +0.000 C 
BRANCH  31  32
ATOM     32  O   UNL     1      -0.487  -2.655  -1.912  0.00  0.00    +0.000 OA
ATOM     33  H   UNL     1      -0.135  -3.222  -2.614  0.00  0.00    +0.000 HD
ENDBRANCH  31  32
ENDBRANCH  29  31
ENDBRANCH  23  29
TORSDOF 3
