REMARK  Name = Fluciclovine (18F)
REMARK  3 active torsions:
REMARK  status: ('A' for Active; 'I' for Inactive)
REMARK    1  A    between atoms: N_1  and  C_2
REMARK    2  A    between atoms: C_2  and  C_7
REMARK    3  A    between atoms: C_7  and  O_8
REMARK                            x       y       z     vdW  Elec       q    Type
REMARK                         _______ _______ _______ _____ _____    ______ ____
ROOT
ATOM      1  C   UNL     1       2.361   0.024  -0.138  0.00  0.00    +0.000 C 
ATOM      2  C   UNL     1       2.987   1.091   0.808  0.00  0.00    +0.000 C 
ATOM      3  C   UNL     1       4.078   0.034   1.138  0.00  0.00    +0.000 C 
ATOM      4  F   UNL     1       5.162   0.036   0.331  0.00  0.00    +0.000 F 
ATOM      5  C   UNL     1       3.003  -1.034   0.807  0.00  0.00    +0.000 C 
ENDROOT
BRANCH   1   6
ATOM      6  N   UNL     1       0.885  -0.025   0.053  0.00  0.00    +0.000 NA
ATOM      7  H   UNL     1       0.578   0.023   1.027  0.00  0.00    +0.000 HD
ATOM      8  H   UNL     1       0.479  -0.901  -0.291  0.00  0.00    +0.000 HD
ENDBRANCH   1   6
BRANCH   1   9
ATOM      9  C   UNL     1       2.749   0.029  -1.686  0.00  0.00    +0.000 C 
ATOM     10  O   UNL     1       3.868   0.008  -2.188  0.00  0.00    +0.000 OA
BRANCH   9  11
ATOM     11  O   UNL     1       1.644   0.037  -2.494  0.00  0.00    +0.000 OA
ATOM     12  H   UNL     1       0.847   0.166  -1.935  0.00  0.00    +0.000 HD
ENDBRANCH   9  11
ENDBRANCH   1   9
TORSDOF 3
