REMARK  Name = Flucytosine
REMARK  1 active torsions:
REMARK  status: ('A' for Active; 'I' for Inactive)
REMARK    1  A    between atoms: N_1  and  C_2
REMARK                            x       y       z     vdW  Elec       q    Type
REMARK                         _______ _______ _______ _____ _____    ______ ____
ROOT
ATOM      1  C   UNL     1       2.513  -0.022  -0.011  0.00  0.00    +0.000 A 
ATOM      2  C   UNL     1       3.198   1.122  -0.131  0.00  0.00    +0.000 A 
ATOM      3  F   UNL     1       2.640   2.344  -0.166  0.00  0.00    +0.000 F 
ATOM      4  C   UNL     1       4.659   1.026  -0.160  0.00  0.00    +0.000 A 
ATOM      5  N   UNL     1       5.326  -0.078  -0.231  0.00  0.00    +0.000 NA
ATOM      6  C   UNL     1       4.606  -1.248  -0.228  0.00  0.00    +0.000 A 
ATOM      7  O   UNL     1       5.131  -2.349  -0.385  0.00  0.00    +0.000 OA
ATOM      8  N   UNL     1       3.244  -1.178  -0.016  0.00  0.00    +0.000 N 
ATOM      9  H   UNL     1       2.790  -2.071   0.103  0.00  0.00    +0.000 HD
ENDROOT
BRANCH   1  10
ATOM     10  N   UNL     1       1.150  -0.058   0.115  0.00  0.00    +0.000 N 
ATOM     11  H   UNL     1       0.650   0.797  -0.123  0.00  0.00    +0.000 HD
ATOM     12  H   UNL     1       0.664  -0.930  -0.054  0.00  0.00    +0.000 HD
ENDBRANCH   1  10
TORSDOF 1
