REMARK  Name = Fludeoxyglucose (18F)
REMARK  9 active torsions:
REMARK  status: ('A' for Active; 'I' for Inactive)
REMARK    1  A    between atoms: C_2  and  C_4
REMARK    2  A    between atoms: C_4  and  C_6
REMARK    3  A    between atoms: C_6  and  O_7
REMARK    4  A    between atoms: C_6  and  C_8
REMARK    5  A    between atoms: C_8  and  O_9
REMARK    6  A    between atoms: C_8  and  C_10
REMARK    7  A    between atoms: C_10  and  O_11
REMARK    8  A    between atoms: C_10  and  C_12
REMARK    9  A    between atoms: C_12  and  O_13
REMARK                            x       y       z     vdW  Elec       q    Type
REMARK                         _______ _______ _______ _____ _____    ______ ____
ROOT
ATOM      1  C   UNL     1       6.981  -0.326  -1.764  0.00  0.00    +0.000 C 
ENDROOT
BRANCH   1   2
ATOM      2  O   UNL     1       8.151  -0.241  -0.922  0.00  0.00    +0.000 OA
ATOM      3  H   UNL     1       8.719   0.430  -1.350  0.00  0.00    +0.000 HD
ENDBRANCH   1   2
BRANCH   1   4
ATOM      4  C   UNL     1       7.368  -0.966  -3.137  0.00  0.00    +0.000 C 
BRANCH   4   5
ATOM      5  C   UNL     1       6.519  -2.155  -3.570  0.00  0.00    +0.000 C 
ATOM      6  F   UNL     1       6.776  -3.218  -2.761  0.00  0.00    +0.000 F 
BRANCH   5   7
ATOM      7  C   UNL     1       5.061  -1.787  -3.607  0.00  0.00    +0.000 C 
ATOM      8  O   UNL     1       4.367  -1.582  -2.608  0.00  0.00    +0.000 OA
ENDBRANCH   5   7
ENDBRANCH   4   5
BRANCH   4   9
ATOM      9  O   UNL     1       8.761  -1.312  -3.200  0.00  0.00    +0.000 OA
ATOM     10  H   UNL     1       8.945  -1.871  -2.421  0.00  0.00    +0.000 HD
ENDBRANCH   4   9
ENDBRANCH   1   4
BRANCH   1  11
ATOM     11  C   UNL     1       6.427   1.130  -1.914  0.00  0.00    +0.000 C 
BRANCH  11  12
ATOM     12  O   UNL     1       5.031   1.230  -2.170  0.00  0.00    +0.000 OA
ATOM     13  H   UNL     1       4.746   0.583  -2.834  0.00  0.00    +0.000 HD
ENDBRANCH  11  12
BRANCH  11  14
ATOM     14  C   UNL     1       7.200   1.943  -2.971  0.00  0.00    +0.000 C 
BRANCH  14  15
ATOM     15  O   UNL     1       8.605   1.773  -2.823  0.00  0.00    +0.000 OA
ATOM     16  H   UNL     1       8.905   2.345  -2.096  0.00  0.00    +0.000 HD
ENDBRANCH  14  15
ENDBRANCH  11  14
ENDBRANCH   1  11
TORSDOF 9
