REMARK  Name = Fludrocortisone
REMARK  7 active torsions:
REMARK  status: ('A' for Active; 'I' for Inactive)
REMARK    1  A    between atoms: C_5  and  O_6
REMARK    2  A    between atoms: C_5  and  C_7
REMARK    3  A    between atoms: C_7  and  C_9
REMARK    4  A    between atoms: C_9  and  O_10
REMARK    5  A    between atoms: C_11  and  C_12
REMARK    6  A    between atoms: C_14  and  O_15
REMARK    7  A    between atoms: C_28  and  C_29
REMARK                            x       y       z     vdW  Elec       q    Type
REMARK                         _______ _______ _______ _____ _____    ______ ____
ROOT
ATOM      1  C   UNL     1       1.778   0.014  -0.084  0.00  0.00    +0.000 C 
ATOM      2  C   UNL     1       2.235   0.092  -1.437  0.00  0.00    +0.000 C 
ATOM      3  C   UNL     1       3.295  -0.419  -0.496  0.00  0.00    +0.000 C 
ATOM      4  C   UNL     1       2.719  -1.006   1.384  0.00  0.00    +0.000 C 
ATOM      5  C   UNL     1       2.702  -1.632   0.207  0.00  0.00    +0.000 C 
ATOM      6  C   UNL     1       1.938  -2.803  -0.304  0.00  0.00    +0.000 C 
ATOM      7  C   UNL     1       4.559  -1.586   0.619  0.00  0.00    +0.000 C 
ATOM      8  C   UNL     1       4.945  -0.010   1.371  0.00  0.00    +0.000 C 
ATOM      9  C   UNL     1       4.070   1.483   1.017  0.00  0.00    +0.000 C 
ATOM     10  F   UNL     1       3.918   1.583  -0.396  0.00  0.00    +0.000 F 
ATOM     11  C   UNL     1       2.420   1.388   0.969  0.00  0.00    +0.000 C 
ATOM     12  C   UNL     1       1.931   2.654   0.227  0.00  0.00    +0.000 C 
ATOM     13  C   UNL     1       2.626   3.871   0.761  0.00  0.00    +0.000 C 
ATOM     14  C   UNL     1       4.057   3.832   0.300  0.00  0.00    +0.000 C 
ATOM     15  C   UNL     1       4.647   4.816  -0.399  0.00  0.00    +0.000 C 
ATOM     16  C   UNL     1       4.563   5.822   0.644  0.00  0.00    +0.000 C 
ATOM     17  O   UNL     1       3.630   6.606   0.765  0.00  0.00    +0.000 OA
ATOM     18  C   UNL     1       5.744   5.585   1.529  0.00  0.00    +0.000 C 
ATOM     19  C   UNL     1       5.801   3.819   1.877  0.00  0.00    +0.000 C 
ATOM     20  C   UNL     1       5.009   2.798   0.828  0.00  0.00    +0.000 C 
ATOM     21  C   UNL     1       5.865   2.355  -0.532  0.00  0.00    +0.000 C 
ENDROOT
BRANCH   4  22
ATOM     22  O   UNL     1       1.271  -0.948   1.790  0.00  0.00    +0.000 OA
ATOM     23  H   UNL     1       1.108  -1.031   2.735  0.00  0.00    +0.000 HD
ENDBRANCH   4  22
BRANCH   4  24
ATOM     24  C   UNL     1       2.963  -2.486   2.420  0.00  0.00    +0.000 C 
ATOM     25  O   UNL     1       3.407  -3.561   1.983  0.00  0.00    +0.000 OA
BRANCH  24  26
ATOM     26  C   UNL     1       2.513  -2.600   3.941  0.00  0.00    +0.000 C 
BRANCH  26  27
ATOM     27  O   UNL     1       2.963  -3.846   4.531  0.00  0.00    +0.000 OA
ATOM     28  H   UNL     1       2.712  -4.573   3.924  0.00  0.00    +0.000 HD
ENDBRANCH  26  27
ENDBRANCH  24  26
ENDBRANCH   4  24
BRANCH   8  29
ATOM     29  O   UNL     1       4.908  -0.243   2.791  0.00  0.00    +0.000 OA
ATOM     30  H   UNL     1       4.002  -0.148   3.121  0.00  0.00    +0.000 HD
ENDBRANCH   8  29
TORSDOF 5
