REMARK  Name = Fludarabine
REMARK  5 active torsions:
REMARK  status: ('A' for Active; 'I' for Inactive)
REMARK    1  A    between atoms: N_11  and  C1*_12
REMARK    2  A    between atoms: C4*_14  and  C5*_15
REMARK    3  A    between atoms: C5*_15  and  O5*_16
REMARK    4  A    between atoms: C3*_17  and  O3*_18
REMARK    5  A    between atoms: C2*_19  and  O2*_20
REMARK                            x       y       z     vdW  Elec       q    Type
REMARK                         _______ _______ _______ _____ _____    ______ ____
ROOT
ATOM      1  N   UNL     1       1.118   0.130   0.068  0.00  0.00    +0.000 N 
ATOM      2  C   UNL     1       2.491   0.157  -0.041  0.00  0.00    +0.000 A 
ATOM      3  N   UNL     1       3.133  -1.030  -0.033  0.00  0.00    +0.000 NA
ATOM      4  C   UNL     1       4.472  -1.038  -0.129  0.00  0.00    +0.000 A 
ATOM      5  F   UNL     1       5.085  -2.225  -0.050  0.00  0.00    +0.000 F 
ATOM      6  N   UNL     1       5.270   0.034  -0.248  0.00  0.00    +0.000 NA
ATOM      7  C   UNL     1       4.615   1.188  -0.226  0.00  0.00    +0.000 A 
ATOM      8  C   UNL     1       3.243   1.346  -0.117  0.00  0.00    +0.000 A 
ATOM      9  N   UNL     1       2.922   2.684  -0.073  0.00  0.00    +0.000 NA
ATOM     10  C   UNL     1       4.078   3.320  -0.107  0.00  0.00    +0.000 A 
ATOM     11  N   UNL     1       5.144   2.456  -0.197  0.00  0.00    +0.000 N 
ATOM     12  H   UNL     1       0.672  -0.771  -0.025  0.00  0.00    +0.000 HD
ATOM     13  H   UNL     1       0.605   0.990  -0.049  0.00  0.00    +0.000 HD
ENDROOT
BRANCH  11  14
ATOM     14  C1* UNL     1       6.544   2.828  -0.001  0.00  0.00    +0.000 C 
ATOM     15  O4* UNL     1       7.328   2.454  -1.154  0.00  0.00    +0.000 OA
ATOM     16  C4* UNL     1       8.318   1.477  -0.742  0.00  0.00    +0.000 C 
ATOM     17  C3* UNL     1       7.897   0.953   0.634  0.00  0.00    +0.000 C 
ATOM     18  C2* UNL     1       7.219   2.189   1.223  0.00  0.00    +0.000 C 
BRANCH  17  19
ATOM     19  O3* UNL     1       8.937   0.407   1.432  0.00  0.00    +0.000 OA
ATOM     20  H3* UNL     1       9.585   1.084   1.669  0.00  0.00    +0.000 HD
ENDBRANCH  17  19
BRANCH  18  21
ATOM     21  O2* UNL     1       6.344   1.948   2.316  0.00  0.00    +0.000 OA
ATOM     22  H2* UNL     1       5.703   1.260   2.056  0.00  0.00    +0.000 HD
ENDBRANCH  18  21
BRANCH  16  23
ATOM     23  C5* UNL     1       8.428   0.395  -1.819  0.00  0.00    +0.000 C 
BRANCH  23  24
ATOM     24  O5* UNL     1       9.366  -0.618  -1.496  0.00  0.00    +0.000 OA
ATOM     25  H5* UNL     1      10.224  -0.200  -1.317  0.00  0.00    +0.000 HD
ENDBRANCH  23  24
ENDBRANCH  16  23
ENDBRANCH  11  14
TORSDOF 5
