REMARK  Name = Flufenamic acid
REMARK  5 active torsions:
REMARK  status: ('A' for Active; 'I' for Inactive)
REMARK    1  A    between atoms: O_1  and  C_2
REMARK    2  A    between atoms: C_2  and  C_4
REMARK    3  A    between atoms: C_9  and  N_10
REMARK    4  A    between atoms: N_10  and  C_11
REMARK    5  A    between atoms: C_13  and  C_17
REMARK                            x       y       z     vdW  Elec       q    Type
REMARK                         _______ _______ _______ _____ _____    ______ ____
ROOT
ATOM      1  N   UNL     1       1.630  -2.692  -0.214  0.00  0.00    +0.000 N 
ATOM      2  H   UNL     1       1.343  -3.662  -0.115  0.00  0.00    +0.000 HD
ENDROOT
BRANCH   1   8
ATOM      3  C   UNL     1       3.235  -1.009   0.762  0.00  0.00    +0.000 A 
ATOM      4  C   UNL     1       4.444  -0.774   1.437  0.00  0.00    +0.000 A 
ATOM      5  C   UNL     1       5.279  -1.824   1.791  0.00  0.00    +0.000 A 
ATOM      6  C   UNL     1       4.875  -3.129   1.548  0.00  0.00    +0.000 A 
ATOM      7  C   UNL     1       3.655  -3.380   0.907  0.00  0.00    +0.000 A 
ATOM      8  C   UNL     1       2.801  -2.329   0.496  0.00  0.00    +0.000 A 
BRANCH   3   9
ATOM      9  C   UNL     1       2.611   0.254   0.308  0.00  0.00    +0.000 C 
ATOM     10  O   UNL     1       3.227   1.067  -0.376  0.00  0.00    +0.000 OA
BRANCH   9  11
ATOM     11  O   UNL     1       1.397   0.506   0.828  0.00  0.00    +0.000 OA
ATOM     12  H   UNL     1       0.922  -0.316   1.048  0.00  0.00    +0.000 HD
ENDBRANCH   9  11
ENDBRANCH   3   9
ENDBRANCH   1   8
BRANCH   1  13
ATOM     13  C   UNL     1       0.658  -1.847  -0.767  0.00  0.00    +0.000 A 
ATOM     14  C   UNL     1      -0.622  -1.771  -0.208  0.00  0.00    +0.000 A 
ATOM     15  C   UNL     1      -1.529  -0.792  -0.654  0.00  0.00    +0.000 A 
ATOM     16  C   UNL     1      -1.091   0.207  -1.535  0.00  0.00    +0.000 A 
ATOM     17  C   UNL     1       0.181   0.141  -2.084  0.00  0.00    +0.000 A 
ATOM     18  C   UNL     1       1.025  -0.913  -1.745  0.00  0.00    +0.000 A 
BRANCH  15  19
ATOM     19  C   UNL     1      -2.979  -0.869  -0.265  0.00  0.00    +0.000 C 
ATOM     20  F   UNL     1      -3.503  -2.084  -0.588  0.00  0.00    +0.000 F 
ATOM     21  F   UNL     1      -3.196  -0.706   1.067  0.00  0.00    +0.000 F 
ATOM     22  F   UNL     1      -3.759   0.050  -0.897  0.00  0.00    +0.000 F 
ENDBRANCH  15  19
ENDBRANCH   1  13
TORSDOF 5
