REMARK  Name = Fluindione
REMARK  1 active torsions:
REMARK  status: ('A' for Active; 'I' for Inactive)
REMARK    1  A    between atoms: C_5  and  C_8
REMARK                            x       y       z     vdW  Elec       q    Type
REMARK                         _______ _______ _______ _____ _____    ______ ____
ROOT
ATOM      1  C   UNL     1      -3.450   0.035   0.002  0.00  0.00    +0.000 C 
ATOM      2  C   UNL     1      -4.041   0.713  -1.225  0.00  0.00    +0.000 C 
ATOM      3  O   UNL     1      -3.804   0.484  -2.396  0.00  0.00    +0.000 OA
ATOM      4  C   UNL     1      -4.975   1.746  -0.776  0.00  0.00    +0.000 A 
ATOM      5  C   UNL     1      -5.761   2.586  -1.543  0.00  0.00    +0.000 A 
ATOM      6  C   UNL     1      -6.551   3.522  -0.870  0.00  0.00    +0.000 A 
ATOM      7  C   UNL     1      -6.543   3.597   0.537  0.00  0.00    +0.000 A 
ATOM      8  C   UNL     1      -5.745   2.735   1.294  0.00  0.00    +0.000 A 
ATOM      9  C   UNL     1      -4.970   1.817   0.610  0.00  0.00    +0.000 A 
ATOM     10  C   UNL     1      -4.036   0.834   1.156  0.00  0.00    +0.000 C 
ATOM     11  O   UNL     1      -3.790   0.728   2.343  0.00  0.00    +0.000 OA
ENDROOT
BRANCH   1  16
ATOM     12  F   UNL     1       2.185  -0.022  -0.001  0.00  0.00    +0.000 F 
ATOM     13  C   UNL     1       0.846  -0.008  -0.002  0.00  0.00    +0.000 A 
ATOM     14  C   UNL     1       0.148  -1.209   0.000  0.00  0.00    +0.000 A 
ATOM     15  C   UNL     1      -1.247  -1.196  -0.004  0.00  0.00    +0.000 A 
ATOM     16  C   UNL     1      -1.941   0.024  -0.001  0.00  0.00    +0.000 A 
ATOM     17  C   UNL     1      -1.214   1.227  -0.001  0.00  0.00    +0.000 A 
ATOM     18  C   UNL     1       0.178   1.210  -0.005  0.00  0.00    +0.000 A 
ENDBRANCH   1  16
TORSDOF 1
