REMARK  Name = Flumethasone
REMARK  8 active torsions:
REMARK  status: ('A' for Active; 'I' for Inactive)
REMARK    1  A    between atoms: C_4  and  C_5
REMARK    2  A    between atoms: C_6  and  O_7
REMARK    3  A    between atoms: C_6  and  C_8
REMARK    4  A    between atoms: C_8  and  C_10
REMARK    5  A    between atoms: C_10  and  O_11
REMARK    6  A    between atoms: C_12  and  C_13
REMARK    7  A    between atoms: C_15  and  O_16
REMARK    8  A    between atoms: C_30  and  C_31
REMARK                            x       y       z     vdW  Elec       q    Type
REMARK                         _______ _______ _______ _____ _____    ______ ____
ROOT
ATOM      1  C   UNL     1       1.763  -0.024   0.037  0.00  0.00    +0.000 C 
ATOM      2  C   UNL     1       2.238   0.049   1.409  0.00  0.00    +0.000 C 
ATOM      3  C   UNL     1       3.390  -0.440   0.591  0.00  0.00    +0.000 C 
ATOM      4  C   UNL     1       4.437  -1.073   1.954  0.00  0.00    +0.000 C 
ATOM      5  C   UNL     1       2.803  -0.871  -1.345  0.00  0.00    +0.000 C 
ATOM      6  C   UNL     1       2.625  -1.592  -0.243  0.00  0.00    +0.000 C 
ATOM      7  C   UNL     1       1.928  -2.803   0.196  0.00  0.00    +0.000 C 
ATOM      8  C   UNL     1       4.473  -1.666  -0.638  0.00  0.00    +0.000 C 
ATOM      9  C   UNL     1       4.982  -0.076  -1.345  0.00  0.00    +0.000 C 
ATOM     10  C   UNL     1       4.070   1.471  -1.047  0.00  0.00    +0.000 C 
ATOM     11  F   UNL     1       3.883   1.598   0.365  0.00  0.00    +0.000 F 
ATOM     12  C   UNL     1       2.405   1.392  -0.955  0.00  0.00    +0.000 C 
ATOM     13  C   UNL     1       1.939   2.653  -0.156  0.00  0.00    +0.000 C 
ATOM     14  C   UNL     1       2.649   3.873  -0.669  0.00  0.00    +0.000 C 
ATOM     15  F   UNL     1       2.520   3.899  -2.022  0.00  0.00    +0.000 F 
ATOM     16  C   UNL     1       4.070   3.772  -0.202  0.00  0.00    +0.000 C 
ATOM     17  C   UNL     1       4.761   4.676   0.524  0.00  0.00    +0.000 C 
ATOM     18  C   UNL     1       4.678   5.764  -0.382  0.00  0.00    +0.000 C 
ATOM     19  O   UNL     1       4.079   6.760  -0.045  0.00  0.00    +0.000 OA
ATOM     20  C   UNL     1       5.609   5.326  -1.533  0.00  0.00    +0.000 C 
ATOM     21  C   UNL     1       5.760   3.937  -1.794  0.00  0.00    +0.000 C 
ATOM     22  C   UNL     1       5.014   2.789  -0.842  0.00  0.00    +0.000 C 
ATOM     23  C   UNL     1       5.823   2.354   0.620  0.00  0.00    +0.000 C 
ENDROOT
BRANCH   5  24
ATOM     24  O   UNL     1       3.162  -2.142  -2.218  0.00  0.00    +0.000 OA
ATOM     25  H   UNL     1       3.176  -1.925  -3.182  0.00  0.00    +0.000 HD
ENDBRANCH   5  24
BRANCH   5  26
ATOM     26  C   UNL     1       1.543  -0.893  -2.669  0.00  0.00    +0.000 C 
ATOM     27  O   UNL     1       2.000  -1.084  -3.838  0.00  0.00    +0.000 OA
BRANCH  26  28
ATOM     28  C   UNL     1      -0.017  -0.819  -2.701  0.00  0.00    +0.000 C 
BRANCH  28  29
ATOM     29  O   UNL     1      -0.667  -1.074  -3.997  0.00  0.00    +0.000 OA
ATOM     30  H   UNL     1      -0.289  -0.527  -4.714  0.00  0.00    +0.000 HD
ENDBRANCH  28  29
ENDBRANCH  26  28
ENDBRANCH   5  26
BRANCH   9  31
ATOM     31  O   UNL     1       6.346   0.032  -0.968  0.00  0.00    +0.000 OA
ATOM     32  H   UNL     1       6.363  -0.217  -0.024  0.00  0.00    +0.000 HD
ENDBRANCH   9  31
TORSDOF 5
