REMARK  Name = Flumazenil
REMARK  5 active torsions:
REMARK  status: ('A' for Active; 'I' for Inactive)
REMARK    1  A    between atoms: C_1  and  C_2
REMARK    2  A    between atoms: C_2  and  O_3
REMARK    3  A    between atoms: O_3  and  C_4
REMARK    4  A    between atoms: C_4  and  C_6
REMARK    5  A    between atoms: N_9  and  C_10
REMARK                            x       y       z     vdW  Elec       q    Type
REMARK                         _______ _______ _______ _____ _____    ______ ____
ROOT
ATOM      1  C   UNL     1       4.911   0.165  -3.031  0.00  0.00    +0.000 A 
ATOM      2  C   UNL     1       4.435   1.026  -4.011  0.00  0.00    +0.000 A 
ATOM      3  C   UNL     1       3.382   2.081  -4.006  0.00  0.00    +0.000 C 
ATOM      4  N   UNL     1       4.055   3.367  -4.057  0.00  0.00    +0.000 N 
ATOM      5  C   UNL     1       3.589   4.464  -3.223  0.00  0.00    +0.000 C 
ATOM      6  C   UNL     1       5.051   3.613  -4.990  0.00  0.00    +0.000 C 
ATOM      7  O   UNL     1       5.979   4.396  -4.834  0.00  0.00    +0.000 OA
ATOM      8  C   UNL     1       4.925   2.889  -6.277  0.00  0.00    +0.000 A 
ATOM      9  C   UNL     1       5.100   1.498  -6.355  0.00  0.00    +0.000 A 
ATOM     10  C   UNL     1       5.065   0.859  -7.602  0.00  0.00    +0.000 A 
ATOM     11  C   UNL     1       4.774   1.618  -8.747  0.00  0.00    +0.000 A 
ATOM     12  C   UNL     1       4.556   2.992  -8.644  0.00  0.00    +0.000 A 
ATOM     13  F   UNL     1       4.247   3.697  -9.742  0.00  0.00    +0.000 F 
ATOM     14  C   UNL     1       4.647   3.641  -7.422  0.00  0.00    +0.000 A 
ATOM     15  N   UNL     1       5.195   0.771  -5.145  0.00  0.00    +0.000 N 
ATOM     16  C   UNL     1       6.047  -0.254  -4.834  0.00  0.00    +0.000 A 
ATOM     17  N   UNL     1       5.924  -0.621  -3.575  0.00  0.00    +0.000 NA
ENDROOT
BRANCH   1  18
ATOM     18  C   UNL     1       4.481   0.070  -1.626  0.00  0.00    +0.000 C 
ATOM     19  O   UNL     1       5.265  -0.050  -0.684  0.00  0.00    +0.000 OA
BRANCH  18  20
ATOM     20  O   UNL     1       3.116   0.117  -1.468  0.00  0.00    +0.000 OA
BRANCH  20  22
ATOM     21  C   UNL     1       1.140  -0.015  -0.075  0.00  0.00    +0.000 C 
ATOM     22  C   UNL     1       2.662  -0.006  -0.105  0.00  0.00    +0.000 C 
ENDBRANCH  20  22
ENDBRANCH  18  20
ENDBRANCH   1  18
TORSDOF 3
