REMARK  Name = Flunisolide
REMARK  8 active torsions:
REMARK  status: ('A' for Active; 'I' for Inactive)
REMARK    1  A    between atoms: C_17  and  C_18
REMARK    2  A    between atoms: C_21  and  O_22
REMARK    3  A    between atoms: C_24  and  C_25
REMARK    4  A    between atoms: C_26  and  C_32
REMARK    5  A    between atoms: C_28  and  C_29
REMARK    6  A    between atoms: C_28  and  C_30
REMARK    7  A    between atoms: C_32  and  C_34
REMARK    8  A    between atoms: C_34  and  O_35
REMARK                            x       y       z     vdW  Elec       q    Type
REMARK                         _______ _______ _______ _____ _____    ______ ____
ROOT
ATOM      1  C   UNL     1       2.135  -0.004  -0.059  0.00  0.00    +0.000 C 
ATOM      2  C   UNL     1       2.430   0.191  -1.534  0.00  0.00    +0.000 C 
ATOM      3  C   UNL     1       3.974   0.050  -1.687  0.00  0.00    +0.000 C 
ATOM      4  C   UNL     1       4.601   1.414  -1.392  0.00  0.00    +0.000 C 
ATOM      5  C   UNL     1       3.950   2.722  -1.840  0.00  0.00    +0.000 C 
ATOM      6  C   UNL     1       4.511   3.789  -0.964  0.00  0.00    +0.000 C 
ATOM      7  F   UNL     1       3.823   4.928  -1.225  0.00  0.00    +0.000 F 
ATOM      8  C   UNL     1       6.022   3.720  -1.377  0.00  0.00    +0.000 C 
ATOM      9  C   UNL     1       6.690   4.727  -1.953  0.00  0.00    +0.000 C 
ATOM     10  C   UNL     1       6.181   5.776  -1.084  0.00  0.00    +0.000 C 
ATOM     11  O   UNL     1       5.442   6.717  -1.477  0.00  0.00    +0.000 OA
ATOM     12  C   UNL     1       6.621   5.507   0.353  0.00  0.00    +0.000 C 
ATOM     13  C   UNL     1       6.739   4.153   0.718  0.00  0.00    +0.000 C 
ATOM     14  C   UNL     1       6.829   2.908  -0.377  0.00  0.00    +0.000 C 
ATOM     15  C   UNL     1       8.362   2.656  -0.316  0.00  0.00    +0.000 C 
ATOM     16  C   UNL     1       6.255   1.433  -1.004  0.00  0.00    +0.000 C 
ATOM     17  C   UNL     1       6.891  -0.053  -0.464  0.00  0.00    +0.000 C 
ATOM     18  C   UNL     1       6.043  -1.216  -1.094  0.00  0.00    +0.000 C 
ATOM     19  C   UNL     1       4.459  -1.245  -0.775  0.00  0.00    +0.000 C 
ATOM     20  C   UNL     1       4.961  -1.874   0.631  0.00  0.00    +0.000 C 
ATOM     21  C   UNL     1       3.027  -1.194   0.240  0.00  0.00    +0.000 C 
ATOM     22  O   UNL     1       3.257  -0.787   1.711  0.00  0.00    +0.000 OA
ATOM     23  C   UNL     1       3.584   0.635   1.759  0.00  0.00    +0.000 C 
ATOM     24  C   UNL     1       4.156   1.310   3.059  0.00  0.00    +0.000 C 
ATOM     25  C   UNL     1       4.898   1.134   1.182  0.00  0.00    +0.000 C 
ATOM     26  O   UNL     1       2.548   1.135   0.884  0.00  0.00    +0.000 OA
ENDROOT
BRANCH  17  27
ATOM     27  O   UNL     1       7.230  -0.252   0.933  0.00  0.00    +0.000 OA
ATOM     28  H   UNL     1       6.514  -0.512   1.538  0.00  0.00    +0.000 HD
ENDBRANCH  17  27
BRANCH  21  29
ATOM     29  C   UNL     1       2.728  -2.760  -0.419  0.00  0.00    +0.000 C 
ATOM     30  O   UNL     1       3.605  -3.658  -0.415  0.00  0.00    +0.000 OA
BRANCH  29  31
ATOM     31  C   UNL     1       1.620  -3.079  -1.375  0.00  0.00    +0.000 C 
BRANCH  31  32
ATOM     32  O   UNL     1       2.158  -3.895  -2.440  0.00  0.00    +0.000 OA
ATOM     33  H   UNL     1       3.091  -3.627  -2.585  0.00  0.00    +0.000 HD
ENDBRANCH  31  32
ENDBRANCH  29  31
ENDBRANCH  21  29
TORSDOF 4
