REMARK  Name = Flunitrazepam
REMARK  3 active torsions:
REMARK  status: ('A' for Active; 'I' for Inactive)
REMARK    1  A    between atoms: C_1  and  N_2
REMARK    2  A    between atoms: C_6  and  N_9
REMARK    3  A    between atoms: C_12  and  C_17
REMARK                            x       y       z     vdW  Elec       q    Type
REMARK                         _______ _______ _______ _____ _____    ______ ____
ROOT
ATOM      1  C   UNL     1       1.070   0.002   0.022  0.00  0.00    +0.000 C 
ATOM      2  N   UNL     1       2.527   0.015   0.049  0.00  0.00    +0.000 N 
ATOM      3  C   UNL     1       3.204   1.257   0.191  0.00  0.00    +0.000 A 
ATOM      4  C   UNL     1       4.371   1.429   0.961  0.00  0.00    +0.000 A 
ATOM      5  C   UNL     1       4.953   2.706   1.084  0.00  0.00    +0.000 A 
ATOM      6  C   UNL     1       4.380   3.804   0.431  0.00  0.00    +0.000 A 
ATOM      7  C   UNL     1       3.238   3.645  -0.350  0.00  0.00    +0.000 A 
ATOM      8  C   UNL     1       2.661   2.381  -0.462  0.00  0.00    +0.000 A 
ATOM      9  C   UNL     1       5.010   0.313   1.715  0.00  0.00    +0.000 C 
ATOM     10  N   UNL     1       5.175  -0.886   1.270  0.00  0.00    +0.000 NA
ATOM     11  C   UNL     1       4.681  -1.233  -0.061  0.00  0.00    +0.000 C 
ATOM     12  C   UNL     1       3.160  -1.221  -0.080  0.00  0.00    +0.000 C 
ATOM     13  O   UNL     1       2.522  -2.258  -0.288  0.00  0.00    +0.000 OA
ENDROOT
BRANCH   9  14
ATOM     14  C   UNL     1       5.529   0.589   3.082  0.00  0.00    +0.000 A 
ATOM     15  C   UNL     1       6.871   0.322   3.375  0.00  0.00    +0.000 A 
ATOM     16  C   UNL     1       7.328   0.447   4.689  0.00  0.00    +0.000 A 
ATOM     17  C   UNL     1       6.474   0.927   5.685  0.00  0.00    +0.000 A 
ATOM     18  C   UNL     1       5.166   1.293   5.366  0.00  0.00    +0.000 A 
ATOM     19  C   UNL     1       4.684   1.075   4.078  0.00  0.00    +0.000 A 
ATOM     20  F   UNL     1       3.393   1.329   3.819  0.00  0.00    +0.000 F 
ENDBRANCH   9  14
BRANCH   6  21
ATOM     21  N   UNL     1       4.991   5.131   0.563  0.00  0.00    +0.000 N 
ATOM     22  O   UNL     1       4.456   6.071  -0.048  0.00  0.00    +0.000 OA
ATOM     23  O   UNL     1       5.998   5.234   1.271  0.00  0.00    +0.000 OA
ENDBRANCH   6  21
TORSDOF 2
