REMARK  Name = Fluocinolone acetonide
REMARK  8 active torsions:
REMARK  status: ('A' for Active; 'I' for Inactive)
REMARK    1  A    between atoms: C_17  and  C_18
REMARK    2  A    between atoms: C_21  and  O_22
REMARK    3  A    between atoms: C_24  and  C_25
REMARK    4  A    between atoms: C_26  and  C_32
REMARK    5  A    between atoms: C_28  and  C_29
REMARK    6  A    between atoms: C_28  and  C_30
REMARK    7  A    between atoms: C_32  and  C_34
REMARK    8  A    between atoms: C_34  and  O_35
REMARK                            x       y       z     vdW  Elec       q    Type
REMARK                         _______ _______ _______ _____ _____    ______ ____
ROOT
ATOM      1  C   UNL     1       2.000  -0.045   0.000  0.00  0.00    +0.000 C 
ATOM      2  C   UNL     1       2.264   0.190  -1.469  0.00  0.00    +0.000 C 
ATOM      3  C   UNL     1       3.788   0.068  -1.612  0.00  0.00    +0.000 C 
ATOM      4  C   UNL     1       4.411   1.419  -1.258  0.00  0.00    +0.000 C 
ATOM      5  C   UNL     1       3.863   2.725  -1.816  0.00  0.00    +0.000 C 
ATOM      6  C   UNL     1       4.495   3.868  -1.066  0.00  0.00    +0.000 C 
ATOM      7  F   UNL     1       3.843   5.002  -1.426  0.00  0.00    +0.000 F 
ATOM      8  C   UNL     1       5.887   3.846  -1.598  0.00  0.00    +0.000 C 
ATOM      9  C   UNL     1       6.500   4.978  -2.002  0.00  0.00    +0.000 C 
ATOM     10  C   UNL     1       6.467   5.693  -0.740  0.00  0.00    +0.000 C 
ATOM     11  O   UNL     1       5.704   6.649  -0.451  0.00  0.00    +0.000 OA
ATOM     12  C   UNL     1       7.467   5.060   0.141  0.00  0.00    +0.000 C 
ATOM     13  C   UNL     1       7.606   3.666   0.080  0.00  0.00    +0.000 C 
ATOM     14  C   UNL     1       6.825   2.740  -1.125  0.00  0.00    +0.000 C 
ATOM     15  C   UNL     1       7.681   2.441  -2.396  0.00  0.00    +0.000 C 
ATOM     16  C   UNL     1       6.008   1.287  -1.201  0.00  0.00    +0.000 C 
ATOM     17  F   UNL     1       6.048   0.887  -2.586  0.00  0.00    +0.000 F 
ATOM     18  C   UNL     1       6.757  -0.092  -0.647  0.00  0.00    +0.000 C 
ATOM     19  C   UNL     1       5.873  -1.301  -1.155  0.00  0.00    +0.000 C 
ATOM     20  C   UNL     1       4.304  -1.252  -0.762  0.00  0.00    +0.000 C 
ATOM     21  C   UNL     1       4.872  -1.861   0.618  0.00  0.00    +0.000 C 
ATOM     22  C   UNL     1       2.900  -1.244   0.277  0.00  0.00    +0.000 C 
ATOM     23  O   UNL     1       3.166  -0.833   1.751  0.00  0.00    +0.000 OA
ATOM     24  C   UNL     1       3.517   0.596   1.780  0.00  0.00    +0.000 C 
ATOM     25  C   UNL     1       4.048   1.287   3.083  0.00  0.00    +0.000 C 
ATOM     26  C   UNL     1       4.893   1.096   1.229  0.00  0.00    +0.000 C 
ATOM     27  O   UNL     1       2.447   1.089   0.939  0.00  0.00    +0.000 OA
ENDROOT
BRANCH  18  28
ATOM     28  O   UNL     1       7.287  -0.230   0.689  0.00  0.00    +0.000 OA
ATOM     29  H   UNL     1       6.668  -0.553   1.368  0.00  0.00    +0.000 HD
ENDBRANCH  18  28
BRANCH  22  30
ATOM     30  C   UNL     1       2.608  -2.801  -0.385  0.00  0.00    +0.000 C 
ATOM     31  O   UNL     1       3.479  -3.702  -0.362  0.00  0.00    +0.000 OA
BRANCH  30  32
ATOM     32  C   UNL     1       1.518  -3.106  -1.372  0.00  0.00    +0.000 C 
BRANCH  32  33
ATOM     33  O   UNL     1       2.061  -3.919  -2.435  0.00  0.00    +0.000 OA
ATOM     34  H   UNL     1       2.982  -3.629  -2.601  0.00  0.00    +0.000 HD
ENDBRANCH  32  33
ENDBRANCH  30  32
ENDBRANCH  22  30
TORSDOF 4
