REMARK  Name = Fluorescein
REMARK  2 active torsions:
REMARK  status: ('A' for Active; 'I' for Inactive)
REMARK    1  A    between atoms: O_1  and  C_2
REMARK    2  A    between atoms: C_10  and  O_11
REMARK                            x       y       z     vdW  Elec       q    Type
REMARK                         _______ _______ _______ _____ _____    ______ ____
ROOT
ATOM      1  C   UNL     1       3.656  -1.875  -0.060  0.00  0.00    +0.000 A 
ATOM      2  C   UNL     1       3.719  -0.518   0.226  0.00  0.00    +0.000 A 
ATOM      3  C   UNL     1       2.535   0.208   0.356  0.00  0.00    +0.000 A 
ATOM      4  C   UNL     1       1.280  -0.412   0.194  0.00  0.00    +0.000 A 
ATOM      5  C   UNL     1       1.244  -1.783  -0.075  0.00  0.00    +0.000 A 
ATOM      6  O   UNL     1       0.085  -2.503  -0.230  0.00  0.00    +0.000 OA
ATOM      7  C   UNL     1      -1.122  -1.860  -0.100  0.00  0.00    +0.000 A 
ATOM      8  C   UNL     1      -2.259  -2.674  -0.223  0.00  0.00    +0.000 A 
ATOM      9  C   UNL     1      -3.524  -2.108  -0.115  0.00  0.00    +0.000 A 
ATOM     10  C   UNL     1      -3.669  -0.746   0.103  0.00  0.00    +0.000 A 
ATOM     11  C   UNL     1      -2.539   0.060   0.231  0.00  0.00    +0.000 A 
ATOM     12  C   UNL     1      -1.245  -0.486   0.136  0.00  0.00    +0.000 A 
ATOM     13  C   UNL     1      -0.008   0.378   0.295  0.00  0.00    +0.000 C 
ATOM     14  O   UNL     1      -0.060   0.976   1.622  0.00  0.00    +0.000 OA
ATOM     15  C   UNL     1      -0.143   2.337   1.581  0.00  0.00    +0.000 C 
ATOM     16  O   UNL     1      -0.204   3.088   2.535  0.00  0.00    +0.000 OA
ATOM     17  C   UNL     1      -0.123   2.724   0.177  0.00  0.00    +0.000 A 
ATOM     18  C   UNL     1      -0.019   1.583  -0.596  0.00  0.00    +0.000 A 
ATOM     19  C   UNL     1       0.059   1.680  -1.978  0.00  0.00    +0.000 A 
ATOM     20  C   UNL     1       0.008   2.951  -2.558  0.00  0.00    +0.000 A 
ATOM     21  C   UNL     1      -0.121   4.101  -1.762  0.00  0.00    +0.000 A 
ATOM     22  C   UNL     1      -0.183   3.995  -0.371  0.00  0.00    +0.000 A 
ATOM     23  C   UNL     1       2.430  -2.513  -0.203  0.00  0.00    +0.000 A 
ENDROOT
BRANCH   1  24
ATOM     24  O   UNL     1       4.787  -2.621  -0.209  0.00  0.00    +0.000 OA
ATOM     25  H   UNL     1       5.560  -2.044  -0.093  0.00  0.00    +0.000 HD
ENDBRANCH   1  24
BRANCH   9  26
ATOM     26  O   UNL     1      -4.667  -2.845  -0.215  0.00  0.00    +0.000 OA
ATOM     27  H   UNL     1      -4.440  -3.781  -0.336  0.00  0.00    +0.000 HD
ENDBRANCH   9  26
TORSDOF 2
