REMARK  Name = Fluorouracil
REMARK  0 active torsions:
REMARK  status: ('A' for Active; 'I' for Inactive)
REMARK                            x       y       z     vdW  Elec       q    Type
REMARK                         _______ _______ _______ _____ _____    ______ ____
ROOT
ATOM      1  F   UNL     1      -2.428  -0.787   0.003  0.00  0.00    +0.000 F 
ATOM      2  C   UNL     1      -1.104  -0.554  -0.000  0.00  0.00    +0.000 A 
ATOM      3  C   UNL     1      -0.202  -1.536   0.001  0.00  0.00    +0.000 A 
ATOM      4  N   UNL     1       1.138  -1.254   0.000  0.00  0.00    +0.000 N 
ATOM      5  C   UNL     1       1.643   0.022  -0.001  0.00  0.00    +0.000 A 
ATOM      6  O   UNL     1       2.849   0.242   0.004  0.00  0.00    +0.000 OA
ATOM      7  N   UNL     1       0.713   1.027  -0.006  0.00  0.00    +0.000 N 
ATOM      8  C   UNL     1      -0.650   0.855  -0.002  0.00  0.00    +0.000 A 
ATOM      9  O   UNL     1      -1.429   1.801   0.002  0.00  0.00    +0.000 OA
ATOM     10  H   UNL     1       1.824  -2.002   0.004  0.00  0.00    +0.000 HD
ATOM     11  H   UNL     1       1.060   1.973  -0.004  0.00  0.00    +0.000 HD
ENDROOT
TORSDOF 0
