REMARK  Name = Fluoxetine
REMARK  8 active torsions:
REMARK  status: ('A' for Active; 'I' for Inactive)
REMARK    1  A    between atoms: C_1  and  N_2
REMARK    2  A    between atoms: N_2  and  C_3
REMARK    3  A    between atoms: C_3  and  C_4
REMARK    4  A    between atoms: C_4  and  C_5
REMARK    5  A    between atoms: C_5  and  O_6
REMARK    6  A    between atoms: C_5  and  C_17
REMARK    7  A    between atoms: O_6  and  C_7
REMARK    8  A    between atoms: C_10  and  C_13
REMARK                            x       y       z     vdW  Elec       q    Type
REMARK                         _______ _______ _______ _____ _____    ______ ____
ROOT
ATOM      1  C   UNL     1       4.822  -1.833  -2.137  0.00  0.00    +0.000 C 
ENDROOT
BRANCH   1   2
ATOM      2  C   UNL     1       6.379  -1.867  -2.087  0.00  0.00    +0.000 A 
ATOM      3  C   UNL     1       7.108  -2.424  -3.152  0.00  0.00    +0.000 A 
ATOM      4  C   UNL     1       8.502  -2.568  -3.081  0.00  0.00    +0.000 A 
ATOM      5  C   UNL     1       9.207  -2.116  -1.968  0.00  0.00    +0.000 A 
ATOM      6  C   UNL     1       8.519  -1.538  -0.915  0.00  0.00    +0.000 A 
ATOM      7  C   UNL     1       7.129  -1.420  -0.976  0.00  0.00    +0.000 A 
ENDBRANCH   1   2
BRANCH   1   8
ATOM      8  C   UNL     1       4.277  -0.975  -0.960  0.00  0.00    +0.000 C 
BRANCH   8   9
ATOM      9  C   UNL     1       2.827  -1.213  -0.543  0.00  0.00    +0.000 C 
BRANCH   9  11
ATOM     10  C   UNL     1       0.937   0.059   0.236  0.00  0.00    +0.000 C 
ATOM     11  N   UNL     1       2.383  -0.086   0.283  0.00  0.00    +0.000 NA
ATOM     12  H   UNL     1       2.700  -0.211   1.242  0.00  0.00    +0.000 HD
ENDBRANCH   9  11
ENDBRANCH   8   9
ENDBRANCH   1   8
BRANCH   1  13
ATOM     13  O   UNL     1       4.456  -1.414  -3.497  0.00  0.00    +0.000 OA
BRANCH  13  14
ATOM     14  C   UNL     1       3.142  -1.250  -3.838  0.00  0.00    +0.000 A 
ATOM     15  C   UNL     1       2.575  -1.953  -4.910  0.00  0.00    +0.000 A 
ATOM     16  C   UNL     1       1.207  -1.784  -5.218  0.00  0.00    +0.000 A 
ATOM     17  C   UNL     1       0.365  -1.072  -4.368  0.00  0.00    +0.000 A 
ATOM     18  C   UNL     1       0.973  -0.304  -3.378  0.00  0.00    +0.000 A 
ATOM     19  C   UNL     1       2.363  -0.273  -3.259  0.00  0.00    +0.000 A 
BRANCH  17  20
ATOM     20  C   UNL     1      -1.133  -1.011  -4.517  0.00  0.00    +0.000 C 
ATOM     21  F   UNL     1      -1.512  -0.256  -5.582  0.00  0.00    +0.000 F 
ATOM     22  F   UNL     1      -1.705  -2.235  -4.690  0.00  0.00    +0.000 F 
ATOM     23  F   UNL     1      -1.765  -0.467  -3.435  0.00  0.00    +0.000 F 
ENDBRANCH  17  20
ENDBRANCH  13  14
ENDBRANCH   1  13
TORSDOF 7
