REMARK  Name = Fluorodopa (18F)
REMARK  7 active torsions:
REMARK  status: ('A' for Active; 'I' for Inactive)
REMARK    1  A    between atoms: N_1  and  CA_2
REMARK    2  A    between atoms: CA_2  and  C_3
REMARK    3  A    between atoms: CA_2  and  C_13
REMARK    4  A    between atoms: C_3  and  C_4
REMARK    5  A    between atoms: C_6  and  O_7
REMARK    6  A    between atoms: C_8  and  O_9
REMARK    7  A    between atoms: C_13  and  O_14
REMARK                            x       y       z     vdW  Elec       q    Type
REMARK                         _______ _______ _______ _____ _____    ______ ____
ROOT
ATOM      1  C   UNL     1       2.437   2.149  -1.210  0.00  0.00    +0.000 A 
ATOM      2  C   UNL     1       2.089   1.470  -2.393  0.00  0.00    +0.000 A 
ATOM      3  C   UNL     1       1.948   2.171  -3.583  0.00  0.00    +0.000 A 
ATOM      4  C   UNL     1       2.048   3.557  -3.595  0.00  0.00    +0.000 A 
ATOM      5  C   UNL     1       2.258   4.260  -2.420  0.00  0.00    +0.000 A 
ATOM      6  C   UNL     1       2.499   3.550  -1.247  0.00  0.00    +0.000 A 
ATOM      7  F   UNL     1       2.823   4.229  -0.137  0.00  0.00    +0.000 F 
ENDROOT
BRANCH   3   8
ATOM      8  O   UNL     1       1.742   1.523  -4.769  0.00  0.00    +0.000 OA
ATOM      9  H   UNL     1       1.762   0.563  -4.610  0.00  0.00    +0.000 HD
ENDBRANCH   3   8
BRANCH   4  10
ATOM     10  O   UNL     1       1.976   4.238  -4.775  0.00  0.00    +0.000 OA
ATOM     11  H   UNL     1       1.950   3.547  -5.467  0.00  0.00    +0.000 HD
ENDBRANCH   4  10
BRANCH   1  12
ATOM     12  C   UNL     1       2.852   1.423   0.057  0.00  0.00    +0.000 C 
BRANCH  12  13
ATOM     13  CA  UNL     1       2.352  -0.027   0.171  0.00  0.00    +0.000 C 
BRANCH  13  14
ATOM     14  N   UNL     1       0.857  -0.073   0.257  0.00  0.00    +0.000 NA
ATOM     15  H1  UNL     1       0.496   0.351  -0.607  0.00  0.00    +0.000 HD
ATOM     16  H2  UNL     1       0.555   0.608   0.961  0.00  0.00    +0.000 HD
ENDBRANCH  13  14
BRANCH  13  17
ATOM     17  C   UNL     1       2.969  -0.723   1.386  0.00  0.00    +0.000 C 
ATOM     18  OXT UNL     1       4.176  -0.822   1.586  0.00  0.00    +0.000 OA
BRANCH  17  19
ATOM     19  O   UNL     1       2.041  -1.250   2.220  0.00  0.00    +0.000 OA
ATOM     20  H   UNL     1       1.157  -1.135   1.799  0.00  0.00    +0.000 HD
ENDBRANCH  17  19
ENDBRANCH  13  17
ENDBRANCH  12  13
ENDBRANCH   1  12
TORSDOF 7
