REMARK  Name = Fluoxymesterone
REMARK  5 active torsions:
REMARK  status: ('A' for Active; 'I' for Inactive)
REMARK    1  A    between atoms: C_5  and  C_6
REMARK    2  A    between atoms: C_5  and  O_7
REMARK    3  A    between atoms: C_8  and  C_9
REMARK    4  A    between atoms: C_11  and  O_12
REMARK    5  A    between atoms: C_25  and  C_26
REMARK                            x       y       z     vdW  Elec       q    Type
REMARK                         _______ _______ _______ _____ _____    ______ ____
ROOT
ATOM      1  C   UNL     1       1.731   0.009  -0.054  0.00  0.00    +0.000 C 
ATOM      2  C   UNL     1       2.195   0.099  -1.407  0.00  0.00    +0.000 C 
ATOM      3  C   UNL     1       3.231  -0.394  -0.466  0.00  0.00    +0.000 C 
ATOM      4  C   UNL     1       2.511  -0.884   1.391  0.00  0.00    +0.000 C 
ATOM      5  C   UNL     1       0.942  -0.999   1.967  0.00  0.00    +0.000 C 
ATOM      6  C   UNL     1       2.632  -1.632   0.280  0.00  0.00    +0.000 C 
ATOM      7  C   UNL     1       1.941  -2.849  -0.193  0.00  0.00    +0.000 C 
ATOM      8  C   UNL     1       4.478  -1.618   0.708  0.00  0.00    +0.000 C 
ATOM      9  C   UNL     1       4.882  -0.021   1.450  0.00  0.00    +0.000 C 
ATOM     10  C   UNL     1       4.020   1.479   1.083  0.00  0.00    +0.000 C 
ATOM     11  F   UNL     1       3.876   1.584  -0.330  0.00  0.00    +0.000 F 
ATOM     12  C   UNL     1       2.370   1.401   1.025  0.00  0.00    +0.000 C 
ATOM     13  C   UNL     1       1.882   2.661   0.295  0.00  0.00    +0.000 C 
ATOM     14  C   UNL     1       2.579   3.872   0.839  0.00  0.00    +0.000 C 
ATOM     15  C   UNL     1       4.009   3.831   0.376  0.00  0.00    +0.000 C 
ATOM     16  C   UNL     1       4.596   4.816  -0.324  0.00  0.00    +0.000 C 
ATOM     17  C   UNL     1       4.529   5.810   0.723  0.00  0.00    +0.000 C 
ATOM     18  O   UNL     1       3.583   6.616   0.847  0.00  0.00    +0.000 OA
ATOM     19  C   UNL     1       5.698   5.572   1.613  0.00  0.00    +0.000 C 
ATOM     20  C   UNL     1       5.752   3.812   1.958  0.00  0.00    +0.000 C 
ATOM     21  C   UNL     1       4.962   2.794   0.907  0.00  0.00    +0.000 C 
ATOM     22  C   UNL     1       5.826   2.352  -0.447  0.00  0.00    +0.000 C 
ENDROOT
BRANCH   4  23
ATOM     23  O   UNL     1       3.074  -1.821   2.379  0.00  0.00    +0.000 OA
ATOM     24  H   UNL     1       2.475  -2.083   3.096  0.00  0.00    +0.000 HD
ENDBRANCH   4  23
BRANCH   9  25
ATOM     25  O   UNL     1       4.873  -0.158   2.884  0.00  0.00    +0.000 OA
ATOM     26  H   UNL     1       3.980  -0.482   3.118  0.00  0.00    +0.000 HD
ENDBRANCH   9  25
TORSDOF 2
