REMARK  Name = Fluocinonide
REMARK  10 active torsions:
REMARK  status: ('A' for Active; 'I' for Inactive)
REMARK    1  A    between atoms: C_17  and  C_18
REMARK    2  A    between atoms: C_21  and  O_22
REMARK    3  A    between atoms: C_24  and  C_25
REMARK    4  A    between atoms: C_26  and  C_32
REMARK    5  A    between atoms: C_28  and  C_29
REMARK    6  A    between atoms: C_28  and  C_30
REMARK    7  A    between atoms: C_32  and  C_34
REMARK    8  A    between atoms: C_34  and  O_35
REMARK    9  A    between atoms: O_35  and  C_36
REMARK   10  A    between atoms: C_36  and  C_37
REMARK                            x       y       z     vdW  Elec       q    Type
REMARK                         _______ _______ _______ _____ _____    ______ ____
ROOT
ATOM      1  C   UNL     1       2.397  -0.053  -0.041  0.00  0.00    +0.000 C 
ATOM      2  C   UNL     1       2.459   0.045   1.482  0.00  0.00    +0.000 C 
ATOM      3  C   UNL     1       3.926  -0.067   1.782  0.00  0.00    +0.000 C 
ATOM      4  C   UNL     1       4.600   1.283   1.253  0.00  0.00    +0.000 C 
ATOM      5  C   UNL     1       3.925   2.604   1.722  0.00  0.00    +0.000 C 
ATOM      6  C   UNL     1       4.578   3.913   1.321  0.00  0.00    +0.000 C 
ATOM      7  F   UNL     1       4.568   4.194  -0.000  0.00  0.00    +0.000 F 
ATOM      8  C   UNL     1       5.940   3.817   1.889  0.00  0.00    +0.000 C 
ATOM      9  C   UNL     1       6.553   4.892   2.432  0.00  0.00    +0.000 C 
ATOM     10  C   UNL     1       6.597   5.771   1.298  0.00  0.00    +0.000 C 
ATOM     11  O   UNL     1       6.017   6.880   1.302  0.00  0.00    +0.000 OA
ATOM     12  C   UNL     1       7.549   5.154   0.315  0.00  0.00    +0.000 C 
ATOM     13  C   UNL     1       7.663   3.757   0.234  0.00  0.00    +0.000 C 
ATOM     14  C   UNL     1       6.891   2.749   1.378  0.00  0.00    +0.000 C 
ATOM     15  C   UNL     1       7.676   2.476   2.720  0.00  0.00    +0.000 C 
ATOM     16  C   UNL     1       6.118   1.272   1.349  0.00  0.00    +0.000 C 
ATOM     17  F   UNL     1       6.128   0.842   2.711  0.00  0.00    +0.000 F 
ATOM     18  C   UNL     1       6.803   0.033   0.706  0.00  0.00    +0.000 C 
ATOM     19  C   UNL     1       6.002  -1.210   1.062  0.00  0.00    +0.000 C 
ATOM     20  C   UNL     1       4.385  -1.333   0.920  0.00  0.00    +0.000 C 
ATOM     21  C   UNL     1       4.357  -2.809   1.410  0.00  0.00    +0.000 C 
ATOM     22  C   UNL     1       3.289  -1.182  -0.439  0.00  0.00    +0.000 C 
ATOM     23  O   UNL     1       4.085  -0.648  -1.490  0.00  0.00    +0.000 OA
ATOM     24  C   UNL     1       3.901   0.736  -1.875  0.00  0.00    +0.000 C 
ATOM     25  C   UNL     1       5.573   0.757  -1.981  0.00  0.00    +0.000 C 
ATOM     26  C   UNL     1       4.143   2.314  -1.627  0.00  0.00    +0.000 C 
ATOM     27  O   UNL     1       2.791   0.982  -0.910  0.00  0.00    +0.000 OA
ENDROOT
BRANCH  18  28
ATOM     28  O   UNL     1       8.159  -0.095   1.169  0.00  0.00    +0.000 OA
ATOM     29  H   UNL     1       8.126  -0.238   2.131  0.00  0.00    +0.000 HD
ENDBRANCH  18  28
BRANCH  22  30
ATOM     30  C   UNL     1       2.054  -2.280  -0.928  0.00  0.00    +0.000 C 
ATOM     31  O   UNL     1       2.224  -3.502  -0.887  0.00  0.00    +0.000 OA
BRANCH  30  32
ATOM     32  C   UNL     1       0.584  -1.698  -1.539  0.00  0.00    +0.000 C 
BRANCH  32  33
ATOM     33  O   UNL     1      -0.438  -2.620  -2.014  0.00  0.00    +0.000 OA
BRANCH  33  34
ATOM     34  C   UNL     1      -1.710  -2.272  -2.389  0.00  0.00    +0.000 C 
ATOM     35  C   UNL     1      -2.112  -0.820  -2.478  0.00  0.00    +0.000 C 
ATOM     36  O   UNL     1      -2.538  -3.135  -2.682  0.00  0.00    +0.000 OA
ENDBRANCH  33  34
ENDBRANCH  32  33
ENDBRANCH  30  32
ENDBRANCH  22  30
TORSDOF 5
