REMARK  Name = Fluocortolone
REMARK  7 active torsions:
REMARK  status: ('A' for Active; 'I' for Inactive)
REMARK    1  A    between atoms: C_4  and  C_5
REMARK    2  A    between atoms: C_6  and  C_7
REMARK    3  A    between atoms: C_7  and  C_9
REMARK    4  A    between atoms: C_9  and  O_10
REMARK    5  A    between atoms: C_11  and  C_12
REMARK    6  A    between atoms: C_14  and  O_15
REMARK    7  A    between atoms: C_29  and  C_30
REMARK                            x       y       z     vdW  Elec       q    Type
REMARK                         _______ _______ _______ _____ _____    ______ ____
ROOT
ATOM      1  C   UNL     1       1.829   0.046  -0.221  0.00  0.00    +0.000 C 
ATOM      2  C   UNL     1       2.413   0.155  -1.529  0.00  0.00    +0.000 C 
ATOM      3  C   UNL     1       3.589  -0.210  -0.611  0.00  0.00    +0.000 C 
ATOM      4  C   UNL     1       5.256   0.299  -1.161  0.00  0.00    +0.000 C 
ATOM      5  C   UNL     1       2.866  -0.863   1.231  0.00  0.00    +0.000 C 
ATOM      6  C   UNL     1       2.678  -1.539   0.103  0.00  0.00    +0.000 C 
ATOM      7  C   UNL     1       1.932  -2.737  -0.307  0.00  0.00    +0.000 C 
ATOM      8  C   UNL     1       4.483  -1.563   0.643  0.00  0.00    +0.000 C 
ATOM      9  C   UNL     1       4.854   0.037   1.506  0.00  0.00    +0.000 C 
ATOM     10  C   UNL     1       4.119   1.505   0.889  0.00  0.00    +0.000 C 
ATOM     11  C   UNL     1       2.471   1.451   0.696  0.00  0.00    +0.000 C 
ATOM     12  C   UNL     1       2.021   2.702  -0.043  0.00  0.00    +0.000 C 
ATOM     13  C   UNL     1       2.574   3.961   0.591  0.00  0.00    +0.000 C 
ATOM     14  F   UNL     1       2.144   5.009  -0.161  0.00  0.00    +0.000 F 
ATOM     15  C   UNL     1       4.061   4.026   0.811  0.00  0.00    +0.000 C 
ATOM     16  C   UNL     1       4.833   5.094   0.532  0.00  0.00    +0.000 C 
ATOM     17  C   UNL     1       6.239   4.950   1.000  0.00  0.00    +0.000 C 
ATOM     18  O   UNL     1       6.768   5.470   1.973  0.00  0.00    +0.000 OA
ATOM     19  C   UNL     1       6.967   3.892   0.222  0.00  0.00    +0.000 C 
ATOM     20  C   UNL     1       6.320   2.928   0.937  0.00  0.00    +0.000 C 
ATOM     21  C   UNL     1       4.752   2.816   1.436  0.00  0.00    +0.000 C 
ATOM     22  C   UNL     1       4.330   2.790   2.908  0.00  0.00    +0.000 C 
ENDROOT
BRANCH   5  23
ATOM     23  C   UNL     1       2.869  -2.357   2.390  0.00  0.00    +0.000 C 
ATOM     24  O   UNL     1       3.296  -3.473   2.032  0.00  0.00    +0.000 OA
BRANCH  23  25
ATOM     25  C   UNL     1       2.283  -2.439   3.904  0.00  0.00    +0.000 C 
BRANCH  25  26
ATOM     26  O   UNL     1       2.711  -3.677   4.574  0.00  0.00    +0.000 OA
ATOM     27  H   UNL     1       2.506  -4.437   3.992  0.00  0.00    +0.000 HD
ENDBRANCH  25  26
ENDBRANCH  23  25
ENDBRANCH   5  23
BRANCH   9  28
ATOM     28  O   UNL     1       4.427  -0.128   2.884  0.00  0.00    +0.000 OA
ATOM     29  H   UNL     1       3.528   0.235   2.999  0.00  0.00    +0.000 HD
ENDBRANCH   9  28
TORSDOF 4
