REMARK  Name = Fluorometholone
REMARK  7 active torsions:
REMARK  status: ('A' for Active; 'I' for Inactive)
REMARK    1  A    between atoms: C_5  and  O_6
REMARK    2  A    between atoms: C_5  and  C_7
REMARK    3  A    between atoms: C_7  and  C_8
REMARK    4  A    between atoms: C_10  and  C_11
REMARK    5  A    between atoms: C_13  and  O_14
REMARK    6  A    between atoms: C_20  and  C_21
REMARK    7  A    between atoms: C_28  and  C_29
REMARK                            x       y       z     vdW  Elec       q    Type
REMARK                         _______ _______ _______ _____ _____    ______ ____
ROOT
ATOM      1  C   UNL     1       1.672  -0.111  -0.065  0.00  0.00    +0.000 C 
ATOM      2  C   UNL     1       2.114  -0.025  -1.424  0.00  0.00    +0.000 C 
ATOM      3  C   UNL     1       3.197  -0.529  -0.530  0.00  0.00    +0.000 C 
ATOM      4  C   UNL     1       2.631  -1.101   1.348  0.00  0.00    +0.000 C 
ATOM      5  C   UNL     1       2.604  -1.761   0.198  0.00  0.00    +0.000 C 
ATOM      6  C   UNL     1       1.766  -2.900  -0.293  0.00  0.00    +0.000 C 
ATOM      7  C   UNL     1       4.473  -1.640   0.638  0.00  0.00    +0.000 C 
ATOM      8  C   UNL     1       4.826  -0.084   1.420  0.00  0.00    +0.000 C 
ATOM      9  C   UNL     1       3.953   1.365   1.079  0.00  0.00    +0.000 C 
ATOM     10  F   UNL     1       3.828   1.466  -0.327  0.00  0.00    +0.000 F 
ATOM     11  C   UNL     1       2.315   1.260   1.014  0.00  0.00    +0.000 C 
ATOM     12  C   UNL     1       1.830   2.510   0.265  0.00  0.00    +0.000 C 
ATOM     13  C   UNL     1       2.537   3.752   0.749  0.00  0.00    +0.000 C 
ATOM     14  C   UNL     1       1.933   4.923   0.018  0.00  0.00    +0.000 C 
ATOM     15  C   UNL     1       3.990   3.729   0.323  0.00  0.00    +0.000 C 
ATOM     16  C   UNL     1       4.658   4.752  -0.267  0.00  0.00    +0.000 C 
ATOM     17  C   UNL     1       4.693   5.687   0.850  0.00  0.00    +0.000 C 
ATOM     18  O   UNL     1       4.164   6.779   0.879  0.00  0.00    +0.000 OA
ATOM     19  C   UNL     1       5.652   5.077   1.818  0.00  0.00    +0.000 C 
ATOM     20  C   UNL     1       5.707   3.691   1.968  0.00  0.00    +0.000 C 
ATOM     21  C   UNL     1       4.905   2.694   0.941  0.00  0.00    +0.000 C 
ATOM     22  C   UNL     1       5.777   2.244  -0.439  0.00  0.00    +0.000 C 
ENDROOT
BRANCH   4  23
ATOM     23  C   UNL     1       2.830  -2.437   2.396  0.00  0.00    +0.000 C 
ATOM     24  C   UNL     1       3.472  -3.788   2.023  0.00  0.00    +0.000 C 
ATOM     25  O   UNL     1       2.382  -2.325   3.554  0.00  0.00    +0.000 OA
ENDBRANCH   4  23
BRANCH   4  26
ATOM     26  O   UNL     1       1.177  -1.034   1.816  0.00  0.00    +0.000 OA
ATOM     27  H   UNL     1       1.101  -1.273   2.763  0.00  0.00    +0.000 HD
ENDBRANCH   4  26
BRANCH   8  28
ATOM     28  O   UNL     1       4.801  -0.347   2.837  0.00  0.00    +0.000 OA
ATOM     29  H   UNL     1       3.890  -0.342   3.188  0.00  0.00    +0.000 HD
ENDBRANCH   8  28
TORSDOF 3
