REMARK  Name = Fluoroestradiol F-18
REMARK  3 active torsions:
REMARK  status: ('A' for Active; 'I' for Inactive)
REMARK    1  A    between atoms: C_6  and  O_7
REMARK    2  A    between atoms: C_8  and  C_9
REMARK    3  A    between atoms: C_21  and  O_22
REMARK                            x       y       z     vdW  Elec       q    Type
REMARK                         _______ _______ _______ _____ _____    ______ ____
ROOT
ATOM      1  C   UNL     1       1.876  -0.031  -0.291  0.00  0.00    +0.000 C 
ATOM      2  C   UNL     1       2.463  -0.205  -1.574  0.00  0.00    +0.000 C 
ATOM      3  C   UNL     1       3.509  -0.429  -0.521  0.00  0.00    +0.000 C 
ATOM      4  F   UNL     1       4.684   0.194  -0.772  0.00  0.00    +0.000 F 
ATOM      5  C   UNL     1       2.667  -0.498   1.387  0.00  0.00    +0.000 C 
ATOM      6  C   UNL     1       2.765  -1.490   0.468  0.00  0.00    +0.000 C 
ATOM      7  C   UNL     1       2.243  -2.817   0.196  0.00  0.00    +0.000 C 
ATOM      8  C   UNL     1       4.493  -1.256   1.185  0.00  0.00    +0.000 C 
ATOM      9  C   UNL     1       4.694   0.409   1.710  0.00  0.00    +0.000 C 
ATOM     10  C   UNL     1       4.056   1.638   0.797  0.00  0.00    +0.000 C 
ATOM     11  C   UNL     1       4.313   3.001   1.348  0.00  0.00    +0.000 A 
ATOM     12  C   UNL     1       3.511   4.082   0.941  0.00  0.00    +0.000 A 
ATOM     13  C   UNL     1       2.320   3.940   0.012  0.00  0.00    +0.000 C 
ATOM     14  C   UNL     1       2.213   2.604  -0.694  0.00  0.00    +0.000 C 
ATOM     15  C   UNL     1       2.473   1.532   0.337  0.00  0.00    +0.000 C 
ATOM     16  C   UNL     1       3.799   5.330   1.474  0.00  0.00    +0.000 A 
ATOM     17  C   UNL     1       4.895   5.486   2.325  0.00  0.00    +0.000 A 
ATOM     18  C   UNL     1       5.732   4.433   2.644  0.00  0.00    +0.000 A 
ATOM     19  C   UNL     1       5.455   3.191   2.133  0.00  0.00    +0.000 A 
ENDROOT
BRANCH   5  20
ATOM     20  O   UNL     1       2.578  -1.401   2.565  0.00  0.00    +0.000 OA
ATOM     21  H   UNL     1       3.047  -2.253   2.556  0.00  0.00    +0.000 HD
ENDBRANCH   5  20
BRANCH  17  22
ATOM     22  O   UNL     1       5.195   6.692   2.878  0.00  0.00    +0.000 OA
ATOM     23  H   UNL     1       4.534   7.329   2.568  0.00  0.00    +0.000 HD
ENDBRANCH  17  22
TORSDOF 2
