REMARK  Name = Flupentixol
REMARK  7 active torsions:
REMARK  status: ('A' for Active; 'I' for Inactive)
REMARK    1  A    between atoms: C_2  and  C_3
REMARK    2  A    between atoms: C_3  and  C_4
REMARK    3  A    between atoms: C_4  and  N_5
REMARK    4  A    between atoms: N_8  and  C_9
REMARK    5  A    between atoms: C_9  and  C_10
REMARK    6  A    between atoms: C_10  and  O_11
REMARK    7  A    between atoms: C_25  and  C_28
REMARK                            x       y       z     vdW  Elec       q    Type
REMARK                         _______ _______ _______ _____ _____    ______ ____
ROOT
ATOM      1  C   UNL     1       2.148   0.013  -0.019  0.00  0.00    +0.000 C 
ATOM      2  C   UNL     1       2.828   0.559  -1.068  0.00  0.00    +0.000 C 
ATOM      3  C   UNL     1       1.974   1.081  -2.189  0.00  0.00    +0.000 A 
ATOM      4  C   UNL     1       0.560   1.071  -2.140  0.00  0.00    +0.000 A 
ATOM      5  C   UNL     1      -0.229   1.530  -3.190  0.00  0.00    +0.000 A 
ATOM      6  C   UNL     1       0.374   2.030  -4.328  0.00  0.00    +0.000 A 
ATOM      7  C   UNL     1       1.759   2.066  -4.406  0.00  0.00    +0.000 A 
ATOM      8  C   UNL     1       2.563   1.598  -3.355  0.00  0.00    +0.000 A 
ATOM      9  S   UNL     1       4.300   1.728  -3.670  0.00  0.00    +0.000 S 
ATOM     10  C   UNL     1       5.047   1.085  -2.206  0.00  0.00    +0.000 A 
ATOM     11  C   UNL     1       4.345   0.597  -1.101  0.00  0.00    +0.000 A 
ATOM     12  C   UNL     1       5.165   0.154  -0.051  0.00  0.00    +0.000 A 
ATOM     13  C   UNL     1       6.558   0.132  -0.038  0.00  0.00    +0.000 A 
ATOM     14  C   UNL     1       7.217   0.615  -1.144  0.00  0.00    +0.000 A 
ATOM     15  C   UNL     1       6.463   1.092  -2.215  0.00  0.00    +0.000 A 
ENDROOT
BRANCH  13  16
ATOM     16  C   UNL     1       7.206  -0.428   1.199  0.00  0.00    +0.000 C 
ATOM     17  F   UNL     1       6.842   0.256   2.322  0.00  0.00    +0.000 F 
ATOM     18  F   UNL     1       6.834  -1.721   1.428  0.00  0.00    +0.000 F 
ATOM     19  F   UNL     1       8.561  -0.419   1.165  0.00  0.00    +0.000 F 
ENDBRANCH  13  16
BRANCH   1  20
ATOM     20  C   UNL     1       2.725  -0.615   1.181  0.00  0.00    +0.000 C 
BRANCH  20  21
ATOM     21  C   UNL     1       1.767  -1.182   2.180  0.00  0.00    +0.000 C 
BRANCH  21  22
ATOM     22  N   UNL     1       2.609  -1.814   3.213  0.00  0.00    +0.000 NA
ATOM     23  C   UNL     1       1.819  -1.925   4.448  0.00  0.00    +0.000 C 
ATOM     24  C   UNL     1       0.642  -2.912   4.284  0.00  0.00    +0.000 C 
ATOM     25  N   UNL     1       1.066  -4.265   3.836  0.00  0.00    +0.000 NA
ATOM     26  C   UNL     1       1.872  -4.136   2.600  0.00  0.00    +0.000 C 
ATOM     27  C   UNL     1       3.057  -3.160   2.774  0.00  0.00    +0.000 C 
BRANCH  25  28
ATOM     28  C   UNL     1       1.852  -4.906   4.906  0.00  0.00    +0.000 C 
BRANCH  28  29
ATOM     29  C   UNL     1       2.347  -6.306   4.535  0.00  0.00    +0.000 C 
BRANCH  29  30
ATOM     30  O   UNL     1       3.127  -6.842   5.596  0.00  0.00    +0.000 OA
ATOM     31  H   UNL     1       3.910  -6.269   5.683  0.00  0.00    +0.000 HD
ENDBRANCH  29  30
ENDBRANCH  28  29
ENDBRANCH  25  28
ENDBRANCH  21  22
ENDBRANCH  20  21
ENDBRANCH   1  20
TORSDOF 7
