REMARK  Name = Fluprednisolone
REMARK  7 active torsions:
REMARK  status: ('A' for Active; 'I' for Inactive)
REMARK    1  A    between atoms: C_5  and  O_6
REMARK    2  A    between atoms: C_5  and  C_7
REMARK    3  A    between atoms: C_7  and  C_9
REMARK    4  A    between atoms: C_9  and  O_10
REMARK    5  A    between atoms: C_11  and  C_12
REMARK    6  A    between atoms: C_14  and  O_15
REMARK    7  A    between atoms: C_29  and  C_30
REMARK                            x       y       z     vdW  Elec       q    Type
REMARK                         _______ _______ _______ _____ _____    ______ ____
ROOT
ATOM      1  C   UNL     1       1.730  -0.020  -0.073  0.00  0.00    +0.000 C 
ATOM      2  C   UNL     1       2.131  -0.034  -1.433  0.00  0.00    +0.000 C 
ATOM      3  C   UNL     1       3.179  -0.401  -0.420  0.00  0.00    +0.000 C 
ATOM      4  C   UNL     1       2.529  -0.963   1.466  0.00  0.00    +0.000 C 
ATOM      5  C   UNL     1       2.659  -1.643   0.308  0.00  0.00    +0.000 C 
ATOM      6  C   UNL     1       1.933  -2.844  -0.171  0.00  0.00    +0.000 C 
ATOM      7  C   UNL     1       4.471  -1.531   0.813  0.00  0.00    +0.000 C 
ATOM      8  C   UNL     1       4.792  -0.033   1.602  0.00  0.00    +0.000 C 
ATOM      9  C   UNL     1       4.187   1.393   1.002  0.00  0.00    +0.000 C 
ATOM     10  C   UNL     1       2.481   1.386   0.815  0.00  0.00    +0.000 C 
ATOM     11  C   UNL     1       2.021   2.635   0.096  0.00  0.00    +0.000 C 
ATOM     12  C   UNL     1       2.559   3.887   0.747  0.00  0.00    +0.000 C 
ATOM     13  F   UNL     1       2.130   4.942   0.004  0.00  0.00    +0.000 F 
ATOM     14  C   UNL     1       4.046   3.937   0.962  0.00  0.00    +0.000 C 
ATOM     15  C   UNL     1       4.805   5.016   0.689  0.00  0.00    +0.000 C 
ATOM     16  C   UNL     1       6.206   4.882   1.162  0.00  0.00    +0.000 C 
ATOM     17  O   UNL     1       6.718   5.408   2.140  0.00  0.00    +0.000 OA
ATOM     18  C   UNL     1       6.947   3.822   0.393  0.00  0.00    +0.000 C 
ATOM     19  C   UNL     1       6.315   2.858   1.116  0.00  0.00    +0.000 C 
ATOM     20  C   UNL     1       4.747   2.727   1.589  0.00  0.00    +0.000 C 
ATOM     21  C   UNL     1       4.309   2.705   3.061  0.00  0.00    +0.000 C 
ENDROOT
BRANCH   4  22
ATOM     22  O   UNL     1       1.066  -0.920   1.794  0.00  0.00    +0.000 OA
ATOM     23  H   UNL     1       0.864  -1.057   2.728  0.00  0.00    +0.000 HD
ENDBRANCH   4  22
BRANCH   4  24
ATOM     24  C   UNL     1       2.771  -2.417   2.584  0.00  0.00    +0.000 C 
ATOM     25  O   UNL     1       3.275  -3.491   2.211  0.00  0.00    +0.000 OA
BRANCH  24  26
ATOM     26  C   UNL     1       2.234  -2.523   4.098  0.00  0.00    +0.000 C 
BRANCH  26  27
ATOM     27  O   UNL     1       2.682  -3.747   4.749  0.00  0.00    +0.000 OA
ATOM     28  H   UNL     1       2.479  -4.501   4.158  0.00  0.00    +0.000 HD
ENDBRANCH  26  27
ENDBRANCH  24  26
ENDBRANCH   4  24
BRANCH   8  29
ATOM     29  O   UNL     1       4.356  -0.210   2.966  0.00  0.00    +0.000 OA
ATOM     30  H   UNL     1       3.481   0.194   3.109  0.00  0.00    +0.000 HD
ENDBRANCH   8  29
TORSDOF 5
