REMARK  Name = Flurazepam
REMARK  8 active torsions:
REMARK  status: ('A' for Active; 'I' for Inactive)
REMARK    1  A    between atoms: C_1  and  C_2
REMARK    2  A    between atoms: C_2  and  N_3
REMARK    3  A    between atoms: N_3  and  C_4
REMARK    4  A    between atoms: N_3  and  C_6
REMARK    5  A    between atoms: C_4  and  C_5
REMARK    6  A    between atoms: C_6  and  C_7
REMARK    7  A    between atoms: C_7  and  N_8
REMARK    8  A    between atoms: C_16  and  C_21
REMARK                            x       y       z     vdW  Elec       q    Type
REMARK                         _______ _______ _______ _____ _____    ______ ____
ROOT
ATOM      1  N   UNL     1       6.420   1.741  -2.322  0.00  0.00    +0.000 N 
ATOM      2  C   UNL     1       7.097   2.199  -1.151  0.00  0.00    +0.000 A 
ATOM      3  C   UNL     1       8.258   1.590  -0.647  0.00  0.00    +0.000 A 
ATOM      4  C   UNL     1       8.821   2.042   0.563  0.00  0.00    +0.000 A 
ATOM      5  C   UNL     1       8.245   3.098   1.261  0.00  0.00    +0.000 A 
ATOM      6 CL   UNL     1       8.949   3.638   2.732  0.00  0.00    +0.000 Cl
ATOM      7  C   UNL     1       7.108   3.720   0.773  0.00  0.00    +0.000 A 
ATOM      8  C   UNL     1       6.539   3.269  -0.418  0.00  0.00    +0.000 A 
ATOM      9  C   UNL     1       8.885   0.398  -1.290  0.00  0.00    +0.000 C 
ATOM     10  N   UNL     1       9.059   0.243  -2.559  0.00  0.00    +0.000 NA
ATOM     11  C   UNL     1       8.573   1.281  -3.469  0.00  0.00    +0.000 C 
ATOM     12  C   UNL     1       7.054   1.301  -3.484  0.00  0.00    +0.000 C 
ATOM     13  O   UNL     1       6.437   1.019  -4.508  0.00  0.00    +0.000 OA
ENDROOT
BRANCH   9  14
ATOM     14  C   UNL     1       9.341  -0.703  -0.398  0.00  0.00    +0.000 A 
ATOM     15  C   UNL     1      10.659  -1.168  -0.446  0.00  0.00    +0.000 A 
ATOM     16  C   UNL     1      11.036  -2.250   0.357  0.00  0.00    +0.000 A 
ATOM     17  C   UNL     1      10.128  -2.801   1.265  0.00  0.00    +0.000 A 
ATOM     18  C   UNL     1       8.842  -2.273   1.374  0.00  0.00    +0.000 A 
ATOM     19  C   UNL     1       8.438  -1.267   0.505  0.00  0.00    +0.000 A 
ATOM     20  F   UNL     1       7.165  -0.848   0.551  0.00  0.00    +0.000 F 
ENDBRANCH   9  14
BRANCH   1  21
ATOM     21  C   UNL     1       4.957   1.753  -2.327  0.00  0.00    +0.000 C 
BRANCH  21  22
ATOM     22  C   UNL     1       4.359   0.890  -1.191  0.00  0.00    +0.000 C 
BRANCH  22  23
ATOM     23  N   UNL     1       2.873   0.910  -1.131  0.00  0.00    +0.000 NA
BRANCH  23  25
ATOM     24  C   UNL     1       0.955  -0.282   0.019  0.00  0.00    +0.000 C 
ATOM     25  C   UNL     1       2.452  -0.016  -0.057  0.00  0.00    +0.000 C 
ENDBRANCH  23  25
BRANCH  23  26
ATOM     26  C   UNL     1       2.404   2.297  -0.944  0.00  0.00    +0.000 C 
ATOM     27  C   UNL     1       0.909   2.527  -1.075  0.00  0.00    +0.000 C 
ENDBRANCH  23  26
ENDBRANCH  22  23
ENDBRANCH  21  22
ENDBRANCH   1  21
TORSDOF 6
