REMARK  Name = Flurandrenolide
REMARK  8 active torsions:
REMARK  status: ('A' for Active; 'I' for Inactive)
REMARK    1  A    between atoms: C_1  and  C_2
REMARK    2  A    between atoms: C_2  and  C_3
REMARK    3  A    between atoms: C_18  and  C_19
REMARK    4  A    between atoms: C_21  and  O_22
REMARK    5  A    between atoms: C_24  and  C_25
REMARK    6  A    between atoms: C_26  and  C_28
REMARK    7  A    between atoms: C_28  and  C_30
REMARK    8  A    between atoms: C_30  and  O_31
REMARK                            x       y       z     vdW  Elec       q    Type
REMARK                         _______ _______ _______ _____ _____    ______ ____
ROOT
ATOM      1  C   UNL     1       0.818  -0.013  -0.097  0.00  0.00    +0.000 C 
ATOM      2  C   UNL     1       2.323  -0.073  -0.079  0.00  0.00    +0.000 C 
ATOM      3  C   UNL     1       2.549  -0.679   1.307  0.00  0.00    +0.000 C 
ATOM      4  O   UNL     1       2.817  -0.972  -1.054  0.00  0.00    +0.000 OA
ATOM      5  C   UNL     1       3.647  -0.231  -1.954  0.00  0.00    +0.000 C 
ATOM      6  C   UNL     1       5.137  -0.699  -1.686  0.00  0.00    +0.000 C 
ATOM      7  C   UNL     1       5.826   0.502  -0.991  0.00  0.00    +0.000 C 
ATOM      8  C   UNL     1       5.629   0.532   0.544  0.00  0.00    +0.000 C 
ATOM      9  C   UNL     1       6.257  -0.660   1.240  0.00  0.00    +0.000 C 
ATOM     10  C   UNL     1       5.792  -0.857   2.662  0.00  0.00    +0.000 C 
ATOM     11  F   UNL     1       4.579  -1.428   2.820  0.00  0.00    +0.000 F 
ATOM     12  C   UNL     1       5.711   0.381   3.432  0.00  0.00    +0.000 C 
ATOM     13  C   UNL     1       5.761   0.174   4.755  0.00  0.00    +0.000 C 
ATOM     14  C   UNL     1       7.233   0.170   4.824  0.00  0.00    +0.000 C 
ATOM     15  O   UNL     1       7.995  -0.773   4.515  0.00  0.00    +0.000 OA
ATOM     16  C   UNL     1       7.630   1.542   5.124  0.00  0.00    +0.000 C 
ATOM     17  C   UNL     1       6.662   2.532   3.979  0.00  0.00    +0.000 C 
ATOM     18  C   UNL     1       5.574   1.770   2.876  0.00  0.00    +0.000 C 
ATOM     19  C   UNL     1       4.014   1.985   2.954  0.00  0.00    +0.000 C 
ATOM     20  C   UNL     1       5.921   1.881   1.288  0.00  0.00    +0.000 C 
ATOM     21  C   UNL     1       5.151   2.989   0.488  0.00  0.00    +0.000 C 
ATOM     22  C   UNL     1       5.570   2.951  -0.978  0.00  0.00    +0.000 C 
ATOM     23  C   UNL     1       5.103   1.671  -1.687  0.00  0.00    +0.000 C 
ATOM     24  C   UNL     1       5.545   1.676  -3.196  0.00  0.00    +0.000 C 
ATOM     25  C   UNL     1       3.557   1.276  -1.594  0.00  0.00    +0.000 C 
ATOM     26  O   UNL     1       2.902   1.238  -0.298  0.00  0.00    +0.000 OA
ENDROOT
BRANCH  21  27
ATOM     27  O   UNL     1       5.374   4.286   1.006  0.00  0.00    +0.000 OA
ATOM     28  H   UNL     1       6.307   4.502   0.868  0.00  0.00    +0.000 HD
ENDBRANCH  21  27
BRANCH  25  29
ATOM     29  C   UNL     1       2.764   2.293  -2.502  0.00  0.00    +0.000 C 
ATOM     30  O   UNL     1       2.018   1.919  -3.410  0.00  0.00    +0.000 OA
BRANCH  29  31
ATOM     31  C   UNL     1       3.013   3.827  -2.302  0.00  0.00    +0.000 C 
BRANCH  31  32
ATOM     32  O   UNL     1       2.234   4.715  -3.081  0.00  0.00    +0.000 OA
ATOM     33  H   UNL     1       2.502   4.543  -4.003  0.00  0.00    +0.000 HD
ENDBRANCH  31  32
ENDBRANCH  29  31
ENDBRANCH  25  29
TORSDOF 4
