REMARK  Name = Flurbiprofen
REMARK  5 active torsions:
REMARK  status: ('A' for Active; 'I' for Inactive)
REMARK    1  A    between atoms: C_1  and  C_2
REMARK    2  A    between atoms: C_2  and  C_3
REMARK    3  A    between atoms: C_2  and  C_6
REMARK    4  A    between atoms: C_3  and  O_4
REMARK    5  A    between atoms: C_10  and  C_13
REMARK                            x       y       z     vdW  Elec       q    Type
REMARK                         _______ _______ _______ _____ _____    ______ ____
ROOT
ATOM      1  C   UNL     1       2.969  -1.232   0.805  0.00  0.00    +0.000 A 
ATOM      2  C   UNL     1       3.687  -1.229   1.998  0.00  0.00    +0.000 A 
ATOM      3  C   UNL     1       3.993  -2.382   2.685  0.00  0.00    +0.000 A 
ATOM      4  F   UNL     1       4.658  -2.251   3.842  0.00  0.00    +0.000 F 
ATOM      5  C   UNL     1       3.564  -3.610   2.237  0.00  0.00    +0.000 A 
ATOM      6  C   UNL     1       2.864  -3.672   1.026  0.00  0.00    +0.000 A 
ATOM      7  C   UNL     1       2.591  -2.503   0.308  0.00  0.00    +0.000 A 
ENDROOT
BRANCH   5   8
ATOM      8  C   UNL     1       3.766  -4.776   3.067  0.00  0.00    +0.000 A 
ATOM      9  C   UNL     1       4.379  -5.910   2.537  0.00  0.00    +0.000 A 
ATOM     10  C   UNL     1       4.370  -7.089   3.263  0.00  0.00    +0.000 A 
ATOM     11  C   UNL     1       3.857  -7.106   4.561  0.00  0.00    +0.000 A 
ATOM     12  C   UNL     1       3.337  -5.949   5.137  0.00  0.00    +0.000 A 
ATOM     13  C   UNL     1       3.289  -4.785   4.389  0.00  0.00    +0.000 A 
ENDBRANCH   5   8
BRANCH   1  15
ATOM     14  C   UNL     1       0.961  -0.011  -0.028  0.00  0.00    +0.000 C 
ATOM     15  C   UNL     1       2.505   0.015   0.054  0.00  0.00    +0.000 C 
BRANCH  15  16
ATOM     16  C   UNL     1       2.886   1.444   0.456  0.00  0.00    +0.000 C 
ATOM     17  O   UNL     1       2.456   2.407  -0.192  0.00  0.00    +0.000 OA
BRANCH  16  18
ATOM     18  O   UNL     1       3.674   1.731   1.494  0.00  0.00    +0.000 OA
ATOM     19  H   UNL     1       4.233   1.065   1.904  0.00  0.00    +0.000 HD
ENDBRANCH  16  18
ENDBRANCH  15  16
ENDBRANCH   1  15
TORSDOF 4
