REMARK  Name = Fluspirilene
REMARK  7 active torsions:
REMARK  status: ('A' for Active; 'I' for Inactive)
REMARK    1  A    between atoms: C_5  and  C_8
REMARK    2  A    between atoms: C_8  and  C_9
REMARK    3  A    between atoms: C_8  and  C_29
REMARK    4  A    between atoms: C_9  and  C_10
REMARK    5  A    between atoms: C_10  and  C_11
REMARK    6  A    between atoms: C_11  and  N_12
REMARK    7  A    between atoms: N_18  and  C_23
REMARK                            x       y       z     vdW  Elec       q    Type
REMARK                         _______ _______ _______ _____ _____    ______ ____
ROOT
ATOM      1  C   UNL     1      -4.053  -3.006   2.526  0.00  0.00    +0.000 C 
ENDROOT
BRANCH   1   2
ATOM      2  N   UNL     1      -3.272  -4.243   2.340  0.00  0.00    +0.000 NA
ATOM      3  C   UNL     1      -3.644  -5.485   3.023  0.00  0.00    +0.000 C 
ATOM      4  C   UNL     1      -4.555  -6.423   2.209  0.00  0.00    +0.000 C 
ATOM      5  C   UNL     1      -4.054  -6.561   0.765  0.00  0.00    +0.000 C 
ATOM      6  C   UNL     1      -3.812  -5.210   0.161  0.00  0.00    +0.000 C 
ATOM      7  C   UNL     1      -2.771  -4.511   0.991  0.00  0.00    +0.000 C 
ATOM      8  N   UNL     1      -4.965  -7.398  -0.034  0.00  0.00    +0.000 N 
ATOM      9  C   UNL     1      -4.263  -8.540  -0.582  0.00  0.00    +0.000 C 
ATOM     10  N   UNL     1      -3.150  -8.670   0.295  0.00  0.00    +0.000 N 
ATOM     11  C   UNL     1      -2.773  -7.431   0.742  0.00  0.00    +0.000 C 
ATOM     12  O   UNL     1      -1.620  -7.165   1.064  0.00  0.00    +0.000 OA
ATOM     13  H   UNL     1      -2.455  -9.398   0.246  0.00  0.00    +0.000 HD
BRANCH   8  14
ATOM     14  C   UNL     1      -6.279  -7.137  -0.318  0.00  0.00    +0.000 A 
ATOM     15  C   UNL     1      -7.267  -8.078  -0.014  0.00  0.00    +0.000 A 
ATOM     16  C   UNL     1      -8.606  -7.866  -0.356  0.00  0.00    +0.000 A 
ATOM     17  C   UNL     1      -9.000  -6.663  -0.934  0.00  0.00    +0.000 A 
ATOM     18  C   UNL     1      -8.047  -5.695  -1.209  0.00  0.00    +0.000 A 
ATOM     19  C   UNL     1      -6.704  -5.946  -0.920  0.00  0.00    +0.000 A 
ENDBRANCH   8  14
ENDBRANCH   1   2
BRANCH   1  20
ATOM     20  C   UNL     1      -3.637  -2.065   1.401  0.00  0.00    +0.000 C 
BRANCH  20  21
ATOM     21  C   UNL     1      -4.030  -0.634   1.334  0.00  0.00    +0.000 C 
BRANCH  21  22
ATOM     22  C   UNL     1      -3.455   0.075   0.050  0.00  0.00    +0.000 C 
BRANCH  22  27
ATOM     23  F   UNL     1       2.254  -0.013   0.018  0.00  0.00    +0.000 F 
ATOM     24  C   UNL     1       0.917   0.010  -0.005  0.00  0.00    +0.000 A 
ATOM     25  C   UNL     1       0.213  -1.175  -0.083  0.00  0.00    +0.000 A 
ATOM     26  C   UNL     1      -1.178  -1.127  -0.185  0.00  0.00    +0.000 A 
ATOM     27  C   UNL     1      -1.904   0.069  -0.021  0.00  0.00    +0.000 A 
ATOM     28  C   UNL     1      -1.143   1.244   0.072  0.00  0.00    +0.000 A 
ATOM     29  C   UNL     1       0.251   1.222   0.027  0.00  0.00    +0.000 A 
ENDBRANCH  22  27
BRANCH  22  30
ATOM     30  C   UNL     1      -4.062   1.482  -0.029  0.00  0.00    +0.000 A 
ATOM     31  C   UNL     1      -3.761   2.323  -1.115  0.00  0.00    +0.000 A 
ATOM     32  C   UNL     1      -4.149   3.661  -1.087  0.00  0.00    +0.000 A 
ATOM     33  C   UNL     1      -4.912   4.136  -0.026  0.00  0.00    +0.000 A 
ATOM     34  F   UNL     1      -5.296   5.416  -0.005  0.00  0.00    +0.000 F 
ATOM     35  C   UNL     1      -5.276   3.311   1.022  0.00  0.00    +0.000 A 
ATOM     36  C   UNL     1      -4.842   1.998   1.024  0.00  0.00    +0.000 A 
ENDBRANCH  22  30
ENDBRANCH  21  22
ENDBRANCH  20  21
ENDBRANCH   1  20
TORSDOF 7
