REMARK  Name = Fluticasone furoate
REMARK  10 active torsions:
REMARK  status: ('A' for Active; 'I' for Inactive)
REMARK    1  A    between atoms: C_4  and  C_5
REMARK    2  A    between atoms: C_6  and  O_7
REMARK    3  A    between atoms: C_6  and  C_15
REMARK    4  A    between atoms: O_7  and  C_8
REMARK    5  A    between atoms: C_8  and  C_10
REMARK    6  A    between atoms: C_15  and  S_17
REMARK    7  A    between atoms: S_17  and  C_18
REMARK    8  A    between atoms: C_20  and  C_21
REMARK    9  A    between atoms: C_23  and  O_24
REMARK   10  A    between atoms: C_38  and  C_39
REMARK                            x       y       z     vdW  Elec       q    Type
REMARK                         _______ _______ _______ _____ _____    ______ ____
ROOT
ATOM      1  C   UNL     1       1.934  -0.110  -0.158  0.00  0.00    +0.000 C 
ATOM      2  C   UNL     1       2.446   0.024  -1.490  0.00  0.00    +0.000 C 
ATOM      3  C   UNL     1       3.527  -0.509  -0.580  0.00  0.00    +0.000 C 
ATOM      4  C   UNL     1       5.240  -0.161  -1.217  0.00  0.00    +0.000 C 
ATOM      5  C   UNL     1       2.760  -1.045   1.289  0.00  0.00    +0.000 C 
ATOM      6  C   UNL     1       2.742  -1.754   0.159  0.00  0.00    +0.000 C 
ATOM      7  C   UNL     1       1.939  -2.917  -0.275  0.00  0.00    +0.000 C 
ATOM      8  C   UNL     1       4.532  -1.765   0.686  0.00  0.00    +0.000 C 
ATOM      9  C   UNL     1       4.938  -0.158   1.522  0.00  0.00    +0.000 C 
ATOM     10  C   UNL     1       4.138   1.363   1.057  0.00  0.00    +0.000 C 
ATOM     11  F   UNL     1       4.107   1.352  -0.327  0.00  0.00    +0.000 F 
ATOM     12  C   UNL     1       2.552   1.275   0.944  0.00  0.00    +0.000 C 
ATOM     13  C   UNL     1       2.021   2.521   0.207  0.00  0.00    +0.000 C 
ATOM     14  C   UNL     1       2.607   3.781   0.730  0.00  0.00    +0.000 C 
ATOM     15  F   UNL     1       1.961   4.793   0.102  0.00  0.00    +0.000 F 
ATOM     16  C   UNL     1       4.032   3.784   0.289  0.00  0.00    +0.000 C 
ATOM     17  C   UNL     1       4.644   4.846  -0.285  0.00  0.00    +0.000 C 
ATOM     18  C   UNL     1       4.547   5.705   0.878  0.00  0.00    +0.000 C 
ATOM     19  O   UNL     1       3.739   6.597   1.012  0.00  0.00    +0.000 OA
ATOM     20  C   UNL     1       5.583   5.175   1.835  0.00  0.00    +0.000 C 
ATOM     21  C   UNL     1       5.712   3.791   1.983  0.00  0.00    +0.000 C 
ATOM     22  C   UNL     1       4.977   2.801   0.948  0.00  0.00    +0.000 C 
ATOM     23  C   UNL     1       5.890   2.511  -0.356  0.00  0.00    +0.000 C 
ENDROOT
BRANCH   5  24
ATOM     24  C   UNL     1       2.934  -2.540   2.418  0.00  0.00    +0.000 C 
ATOM     25  O   UNL     1       3.360  -3.640   2.083  0.00  0.00    +0.000 OA
BRANCH  24  26
ATOM     26  S   UNL     1       2.435  -2.560   4.184  0.00  0.00    +0.000 S 
BRANCH  26  27
ATOM     27  C   UNL     1       3.087  -4.347   4.751  0.00  0.00    +0.000 C 
ATOM     28  F   UNL     1       2.774  -4.546   6.079  0.00  0.00    +0.000 F 
ENDBRANCH  26  27
ENDBRANCH  24  26
ENDBRANCH   5  24
BRANCH   9  29
ATOM     29  O   UNL     1       4.772  -0.402   2.931  0.00  0.00    +0.000 OA
ATOM     30  H   UNL     1       3.851  -0.288   3.219  0.00  0.00    +0.000 HD
ENDBRANCH   9  29
BRANCH   5  31
ATOM     31  O   UNL     1       1.047  -1.083   1.685  0.00  0.00    +0.000 OA
BRANCH  31  32
ATOM     32  C   UNL     1       0.047  -0.091   1.755  0.00  0.00    +0.000 C 
ATOM     33  O   UNL     1       0.233   1.109   1.647  0.00  0.00    +0.000 OA
BRANCH  32  34
ATOM     34  C   UNL     1      -1.339  -0.487   1.847  0.00  0.00    +0.000 A 
ATOM     35  C   UNL     1      -2.118  -0.705   2.968  0.00  0.00    +0.000 A 
ATOM     36  C   UNL     1      -3.471  -0.464   2.604  0.00  0.00    +0.000 A 
ATOM     37  C   UNL     1      -3.454  -0.061   1.291  0.00  0.00    +0.000 A 
ATOM     38  O   UNL     1      -2.177  -0.053   0.827  0.00  0.00    +0.000 OA
ENDBRANCH  32  34
ENDBRANCH  31  32
ENDBRANCH   5  31
TORSDOF 7
