REMARK  Name = Fluticasone
REMARK  8 active torsions:
REMARK  status: ('A' for Active; 'I' for Inactive)
REMARK    1  A    between atoms: C_4  and  C_5
REMARK    2  A    between atoms: C_6  and  O_7
REMARK    3  A    between atoms: C_6  and  C_8
REMARK    4  A    between atoms: C_8  and  S_10
REMARK    5  A    between atoms: S_10  and  C_11
REMARK    6  A    between atoms: C_13  and  C_14
REMARK    7  A    between atoms: C_16  and  O_17
REMARK    8  A    between atoms: C_31  and  C_32
REMARK                            x       y       z     vdW  Elec       q    Type
REMARK                         _______ _______ _______ _____ _____    ______ ____
ROOT
ATOM      1  C   UNL     1       1.734  -0.111  -0.137  0.00  0.00    +0.000 C 
ATOM      2  C   UNL     1       2.268   0.010  -1.464  0.00  0.00    +0.000 C 
ATOM      3  C   UNL     1       3.411  -0.521  -0.596  0.00  0.00    +0.000 C 
ATOM      4  C   UNL     1       5.109  -0.172  -1.260  0.00  0.00    +0.000 C 
ATOM      5  C   UNL     1       2.745  -1.133   1.284  0.00  0.00    +0.000 C 
ATOM      6  C   UNL     1       2.595  -1.760   0.125  0.00  0.00    +0.000 C 
ATOM      7  C   UNL     1       1.814  -2.930  -0.317  0.00  0.00    +0.000 C 
ATOM      8  C   UNL     1       4.415  -1.783   0.625  0.00  0.00    +0.000 C 
ATOM      9  C   UNL     1       4.822  -0.167   1.477  0.00  0.00    +0.000 C 
ATOM     10  C   UNL     1       3.973   1.345   1.047  0.00  0.00    +0.000 C 
ATOM     11  F   UNL     1       3.940   1.348  -0.347  0.00  0.00    +0.000 F 
ATOM     12  C   UNL     1       2.339   1.249   0.944  0.00  0.00    +0.000 C 
ATOM     13  C   UNL     1       1.848   2.495   0.189  0.00  0.00    +0.000 C 
ATOM     14  C   UNL     1       2.478   3.757   0.678  0.00  0.00    +0.000 C 
ATOM     15  F   UNL     1       1.838   4.770   0.045  0.00  0.00    +0.000 F 
ATOM     16  C   UNL     1       3.904   3.759   0.235  0.00  0.00    +0.000 C 
ATOM     17  C   UNL     1       4.526   4.817  -0.343  0.00  0.00    +0.000 C 
ATOM     18  C   UNL     1       4.436   5.685   0.814  0.00  0.00    +0.000 C 
ATOM     19  O   UNL     1       3.625   6.574   0.947  0.00  0.00    +0.000 OA
ATOM     20  C   UNL     1       5.475   5.160   1.769  0.00  0.00    +0.000 C 
ATOM     21  C   UNL     1       5.595   3.776   1.930  0.00  0.00    +0.000 C 
ATOM     22  C   UNL     1       4.843   2.781   0.908  0.00  0.00    +0.000 C 
ATOM     23  C   UNL     1       5.760   2.479  -0.400  0.00  0.00    +0.000 C 
ENDROOT
BRANCH   5  24
ATOM     24  O   UNL     1       1.271  -1.013   1.753  0.00  0.00    +0.000 OA
ATOM     25  H   UNL     1       1.107  -1.283   2.675  0.00  0.00    +0.000 HD
ENDBRANCH   5  24
BRANCH   5  26
ATOM     26  C   UNL     1       2.920  -2.641   2.374  0.00  0.00    +0.000 C 
ATOM     27  O   UNL     1       3.319  -3.744   2.032  0.00  0.00    +0.000 OA
BRANCH  26  28
ATOM     28  S   UNL     1       2.361  -2.627   4.126  0.00  0.00    +0.000 S 
BRANCH  28  29
ATOM     29  C   UNL     1       2.989  -4.380   4.705  0.00  0.00    +0.000 C 
ATOM     30  F   UNL     1       2.673  -4.573   6.031  0.00  0.00    +0.000 F 
ENDBRANCH  28  29
ENDBRANCH  26  28
ENDBRANCH   5  26
BRANCH   9  31
ATOM     31  O   UNL     1       4.676  -0.419   2.889  0.00  0.00    +0.000 OA
ATOM     32  H   UNL     1       3.753  -0.305   3.173  0.00  0.00    +0.000 HD
ENDBRANCH   9  31
TORSDOF 5
