REMARK  Name = Flutemetamol (18F)
REMARK  4 active torsions:
REMARK  status: ('A' for Active; 'I' for Inactive)
REMARK    1  A    between atoms: C_1  and  N_2
REMARK    2  A    between atoms: N_2  and  C_3
REMARK    3  A    between atoms: C_7  and  C_10
REMARK    4  A    between atoms: C_15  and  O_16
REMARK                            x       y       z     vdW  Elec       q    Type
REMARK                         _______ _______ _______ _____ _____    ______ ____
ROOT
ATOM      1  C   UNL     1       4.807  -2.587  -4.773  0.00  0.00    +0.000 A 
ATOM      2  N   UNL     1       3.933  -2.948  -5.697  0.00  0.00    +0.000 NA
ATOM      3  C   UNL     1       4.624  -3.706  -6.600  0.00  0.00    +0.000 A 
ATOM      4  C   UNL     1       4.503  -5.084  -6.845  0.00  0.00    +0.000 A 
ATOM      5  C   UNL     1       5.472  -5.730  -7.628  0.00  0.00    +0.000 A 
ATOM      6  C   UNL     1       6.350  -4.973  -8.392  0.00  0.00    +0.000 A 
ATOM      7  C   UNL     1       6.456  -3.595  -8.197  0.00  0.00    +0.000 A 
ATOM      8  C   UNL     1       5.795  -3.093  -7.049  0.00  0.00    +0.000 A 
ATOM      9  S   UNL     1       6.461  -2.832  -5.306  0.00  0.00    +0.000 S 
ENDROOT
BRANCH   1  14
ATOM     10  C   UNL     1       3.171  -0.635  -1.217  0.00  0.00    +0.000 A 
ATOM     11  C   UNL     1       2.829  -0.328  -2.529  0.00  0.00    +0.000 A 
ATOM     12  F   UNL     1       1.898   0.620  -2.776  0.00  0.00    +0.000 F 
ATOM     13  C   UNL     1       3.433  -0.921  -3.633  0.00  0.00    +0.000 A 
ATOM     14  C   UNL     1       4.390  -1.943  -3.499  0.00  0.00    +0.000 A 
ATOM     15  C   UNL     1       4.739  -2.295  -2.186  0.00  0.00    +0.000 A 
ATOM     16  C   UNL     1       4.170  -1.620  -1.059  0.00  0.00    +0.000 A 
BRANCH  10  18
ATOM     17  C   UNL     1       1.063  -0.077  -0.071  0.00  0.00    +0.000 C 
ATOM     18  N   UNL     1       2.522  -0.066  -0.119  0.00  0.00    +0.000 N 
ATOM     19  H   UNL     1       3.004  -0.008   0.766  0.00  0.00    +0.000 HD
ENDBRANCH  10  18
ENDBRANCH   1  14
BRANCH   6  20
ATOM     20  O   UNL     1       7.096  -5.545  -9.383  0.00  0.00    +0.000 OA
ATOM     21  H   UNL     1       7.110  -6.510  -9.256  0.00  0.00    +0.000 HD
ENDBRANCH   6  20
TORSDOF 3
