REMARK  Name = Fluticasone propionate
REMARK  11 active torsions:
REMARK  status: ('A' for Active; 'I' for Inactive)
REMARK    1  A    between atoms: C_4  and  C_5
REMARK    2  A    between atoms: C_6  and  O_7
REMARK    3  A    between atoms: C_6  and  C_12
REMARK    4  A    between atoms: O_7  and  C_8
REMARK    5  A    between atoms: C_8  and  C_10
REMARK    6  A    between atoms: C_10  and  C_11
REMARK    7  A    between atoms: C_12  and  S_14
REMARK    8  A    between atoms: S_14  and  C_15
REMARK    9  A    between atoms: C_17  and  C_18
REMARK   10  A    between atoms: C_20  and  O_21
REMARK   11  A    between atoms: C_35  and  C_36
REMARK                            x       y       z     vdW  Elec       q    Type
REMARK                         _______ _______ _______ _____ _____    ______ ____
ROOT
ATOM      1  C   UNL     1       1.920  -0.101  -0.125  0.00  0.00    +0.000 C 
ATOM      2  C   UNL     1       2.424   0.028  -1.460  0.00  0.00    +0.000 C 
ATOM      3  C   UNL     1       3.506  -0.507  -0.551  0.00  0.00    +0.000 C 
ATOM      4  C   UNL     1       5.221  -0.157  -1.190  0.00  0.00    +0.000 C 
ATOM      5  C   UNL     1       2.741  -1.047   1.317  0.00  0.00    +0.000 C 
ATOM      6  C   UNL     1       2.727  -1.750   0.185  0.00  0.00    +0.000 C 
ATOM      7  C   UNL     1       1.921  -2.912  -0.250  0.00  0.00    +0.000 C 
ATOM      8  C   UNL     1       4.516  -1.760   0.712  0.00  0.00    +0.000 C 
ATOM      9  C   UNL     1       4.922  -0.152   1.547  0.00  0.00    +0.000 C 
ATOM     10  C   UNL     1       4.132   1.369   1.072  0.00  0.00    +0.000 C 
ATOM     11  F   UNL     1       4.093   1.357  -0.311  0.00  0.00    +0.000 F 
ATOM     12  C   UNL     1       2.559   1.282   0.966  0.00  0.00    +0.000 C 
ATOM     13  C   UNL     1       2.006   2.525   0.237  0.00  0.00    +0.000 C 
ATOM     14  C   UNL     1       2.589   3.786   0.758  0.00  0.00    +0.000 C 
ATOM     15  F   UNL     1       1.940   4.797   0.129  0.00  0.00    +0.000 F 
ATOM     16  C   UNL     1       4.013   3.790   0.316  0.00  0.00    +0.000 C 
ATOM     17  C   UNL     1       4.625   4.853  -0.258  0.00  0.00    +0.000 C 
ATOM     18  C   UNL     1       4.527   5.711   0.906  0.00  0.00    +0.000 C 
ATOM     19  O   UNL     1       3.718   6.603   1.039  0.00  0.00    +0.000 OA
ATOM     20  C   UNL     1       5.563   5.181   1.863  0.00  0.00    +0.000 C 
ATOM     21  C   UNL     1       5.693   3.796   2.009  0.00  0.00    +0.000 C 
ATOM     22  C   UNL     1       4.961   2.807   0.971  0.00  0.00    +0.000 C 
ATOM     23  C   UNL     1       5.873   2.518  -0.331  0.00  0.00    +0.000 C 
ENDROOT
BRANCH   5  24
ATOM     24  C   UNL     1       2.919  -2.539   2.447  0.00  0.00    +0.000 C 
ATOM     25  O   UNL     1       3.343  -3.640   2.110  0.00  0.00    +0.000 OA
BRANCH  24  26
ATOM     26  S   UNL     1       2.420  -2.558   4.213  0.00  0.00    +0.000 S 
BRANCH  26  27
ATOM     27  C   UNL     1       3.068  -4.342   4.780  0.00  0.00    +0.000 C 
ATOM     28  F   UNL     1       2.755  -4.542   6.107  0.00  0.00    +0.000 F 
ENDBRANCH  26  27
ENDBRANCH  24  26
ENDBRANCH   5  24
BRANCH   9  29
ATOM     29  O   UNL     1       4.753  -0.393   2.956  0.00  0.00    +0.000 OA
ATOM     30  H   UNL     1       3.831  -0.280   3.242  0.00  0.00    +0.000 HD
ENDBRANCH   9  29
BRANCH   5  31
ATOM     31  O   UNL     1       1.025  -1.110   1.696  0.00  0.00    +0.000 OA
BRANCH  31  32
ATOM     32  C   UNL     1       0.093  -0.103   1.838  0.00  0.00    +0.000 C 
ATOM     33  O   UNL     1       0.380   1.088   1.854  0.00  0.00    +0.000 OA
BRANCH  32  34
ATOM     34  C   UNL     1      -1.397  -0.331   1.858  0.00  0.00    +0.000 C 
ATOM     35  C   UNL     1      -2.024   0.957   1.215  0.00  0.00    +0.000 C 
ENDBRANCH  32  34
ENDBRANCH  31  32
ENDBRANCH   5  31
TORSDOF 7
