REMARK  Name = Flutamide
REMARK  6 active torsions:
REMARK  status: ('A' for Active; 'I' for Inactive)
REMARK    1  A    between atoms: C_1  and  C_2
REMARK    2  A    between atoms: C_2  and  C_3
REMARK    3  A    between atoms: C_2  and  C_4
REMARK    4  A    between atoms: N_6  and  C_7
REMARK    5  A    between atoms: C_9  and  C_16
REMARK    6  A    between atoms: C_10  and  N_13
REMARK                            x       y       z     vdW  Elec       q    Type
REMARK                         _______ _______ _______ _____ _____    ______ ____
ROOT
ATOM      1  C   UNL     1       4.847   1.458  -2.671  0.00  0.00    +0.000 A 
ATOM      2  C   UNL     1       5.910   0.993  -3.454  0.00  0.00    +0.000 A 
ATOM      3  C   UNL     1       6.391   1.740  -4.579  0.00  0.00    +0.000 A 
ATOM      4  C   UNL     1       5.696   2.906  -4.953  0.00  0.00    +0.000 A 
ATOM      5  C   UNL     1       4.680   3.400  -4.120  0.00  0.00    +0.000 A 
ATOM      6  C   UNL     1       4.280   2.689  -2.992  0.00  0.00    +0.000 A 
ENDROOT
BRANCH   1   9
ATOM      7  C   UNL     1       2.982   0.650  -1.311  0.00  0.00    +0.000 C 
ATOM      8  O   UNL     1       2.141   1.126  -2.076  0.00  0.00    +0.000 OA
ATOM      9  N   UNL     1       4.353   0.743  -1.549  0.00  0.00    +0.000 N 
ATOM     10  H   UNL     1       4.994   0.165  -1.018  0.00  0.00    +0.000 HD
BRANCH   7  12
ATOM     11  C   UNL     1       1.001  -0.091   0.022  0.00  0.00    +0.000 C 
ATOM     12  C   UNL     1       2.539  -0.089  -0.043  0.00  0.00    +0.000 C 
ATOM     13  C   UNL     1       3.033  -1.529  -0.014  0.00  0.00    +0.000 C 
ENDBRANCH   7  12
ENDBRANCH   1   9
BRANCH   3  14
ATOM     14  C   UNL     1       7.683   1.271  -5.211  0.00  0.00    +0.000 C 
ATOM     15  F   UNL     1       8.612   1.018  -4.238  0.00  0.00    +0.000 F 
ATOM     16  F   UNL     1       7.547   0.103  -5.892  0.00  0.00    +0.000 F 
ATOM     17  F   UNL     1       8.317   2.144  -6.032  0.00  0.00    +0.000 F 
ENDBRANCH   3  14
BRANCH   4  18
ATOM     18  N   UNL     1       5.894   3.624  -6.229  0.00  0.00    +0.000 N 
ATOM     19  O   UNL     1       6.478   3.034  -7.149  0.00  0.00    +0.000 OA
ATOM     20  O   UNL     1       5.389   4.746  -6.341  0.00  0.00    +0.000 OA
ENDBRANCH   4  18
TORSDOF 4
