REMARK  Name = Fluvastatin
REMARK  13 active torsions:
REMARK  status: ('A' for Active; 'I' for Inactive)
REMARK    1  A    between atoms: C_1  and  C_2
REMARK    2  A    between atoms: C_2  and  C_3
REMARK    3  A    between atoms: C_2  and  N_4
REMARK    4  A    between atoms: C_5  and  C_6
REMARK    5  A    between atoms: C_7  and  C_8
REMARK    6  A    between atoms: C_8  and  O_9
REMARK    7  A    between atoms: C_8  and  C_10
REMARK    8  A    between atoms: C_10  and  C_11
REMARK    9  A    between atoms: C_11  and  O_12
REMARK   10  A    between atoms: C_11  and  C_13
REMARK   11  A    between atoms: C_13  and  C_14
REMARK   12  A    between atoms: C_14  and  O_15
REMARK   13  A    between atoms: C_17  and  C_24
REMARK                            x       y       z     vdW  Elec       q    Type
REMARK                         _______ _______ _______ _____ _____    ______ ____
ROOT
ATOM      1  N   UNL     1       3.009   1.119   0.832  0.00  0.00    +0.000 N 
ATOM      2  C   UNL     1       2.639   2.433   0.527  0.00  0.00    +0.000 A 
ATOM      3  C   UNL     1       3.112   3.210   1.583  0.00  0.00    +0.000 A 
ATOM      4  C   UNL     1       3.810   2.387   2.501  0.00  0.00    +0.000 A 
ATOM      5  C   UNL     1       4.475   2.653   3.717  0.00  0.00    +0.000 A 
ATOM      6  C   UNL     1       5.062   1.613   4.432  0.00  0.00    +0.000 A 
ATOM      7  C   UNL     1       4.992   0.313   3.947  0.00  0.00    +0.000 A 
ATOM      8  C   UNL     1       4.335   0.021   2.742  0.00  0.00    +0.000 A 
ATOM      9  C   UNL     1       3.741   1.079   2.022  0.00  0.00    +0.000 A 
ENDROOT
BRANCH   3  10
ATOM     10  C   UNL     1       2.890   4.641   1.664  0.00  0.00    +0.000 A 
ATOM     11  C   UNL     1       1.579   5.133   1.629  0.00  0.00    +0.000 A 
ATOM     12  C   UNL     1       1.358   6.496   1.477  0.00  0.00    +0.000 A 
ATOM     13  C   UNL     1       2.442   7.365   1.505  0.00  0.00    +0.000 A 
ATOM     14  F   UNL     1       2.232   8.677   1.344  0.00  0.00    +0.000 F 
ATOM     15  C   UNL     1       3.739   6.897   1.688  0.00  0.00    +0.000 A 
ATOM     16  C   UNL     1       3.973   5.524   1.716  0.00  0.00    +0.000 A 
ENDBRANCH   3  10
BRANCH   1  18
ATOM     17  C   UNL     1       1.081  -0.289   0.211  0.00  0.00    +0.000 C 
ATOM     18  C   UNL     1       2.621  -0.087   0.091  0.00  0.00    +0.000 C 
ATOM     19  C   UNL     1       3.313  -0.133  -1.302  0.00  0.00    +0.000 C 
ENDBRANCH   1  18
BRANCH   2  20
ATOM     20  C   UNL     1       1.929   2.879  -0.647  0.00  0.00    +0.000 C 
ATOM     21  C   UNL     1       1.364   2.122  -1.591  0.00  0.00    +0.000 C 
BRANCH  21  22
ATOM     22  C   UNL     1       0.684   2.497  -2.842  0.00  0.00    +0.000 C 
BRANCH  22  23
ATOM     23  O   UNL     1       1.544   3.382  -3.532  0.00  0.00    +0.000 OA
ATOM     24  H   UNL     1       2.373   2.907  -3.710  0.00  0.00    +0.000 HD
ENDBRANCH  22  23
BRANCH  22  25
ATOM     25  C   UNL     1       0.426   1.216  -3.675  0.00  0.00    +0.000 C 
BRANCH  25  26
ATOM     26  C   UNL     1      -0.376   1.571  -4.911  0.00  0.00    +0.000 C 
BRANCH  26  27
ATOM     27  O   UNL     1       0.332   2.495  -5.735  0.00  0.00    +0.000 OA
ATOM     28  H   UNL     1       1.241   2.161  -5.863  0.00  0.00    +0.000 HD
ENDBRANCH  26  27
BRANCH  26  29
ATOM     29  C   UNL     1      -0.707   0.380  -5.785  0.00  0.00    +0.000 C 
BRANCH  29  30
ATOM     30  C   UNL     1      -1.511   0.765  -7.004  0.00  0.00    +0.000 C 
ATOM     31  O   UNL     1      -1.872  -0.082  -7.830  0.00  0.00    +0.000 OA
BRANCH  30  32
ATOM     32  O   UNL     1      -1.819   2.066  -7.164  0.00  0.00    +0.000 OA
ATOM     33  H   UNL     1      -1.314   2.682  -6.582  0.00  0.00    +0.000 HD
ENDBRANCH  30  32
ENDBRANCH  29  30
ENDBRANCH  26  29
ENDBRANCH  25  26
ENDBRANCH  22  25
ENDBRANCH  21  22
ENDBRANCH   2  20
TORSDOF 11
