REMARK  Name = Fluvoxamine
REMARK  12 active torsions:
REMARK  status: ('A' for Active; 'I' for Inactive)
REMARK    1  A    between atoms: C_1  and  O_2
REMARK    2  A    between atoms: O_2  and  C_3
REMARK    3  A    between atoms: C_3  and  C_4
REMARK    4  A    between atoms: C_4  and  C_5
REMARK    5  A    between atoms: C_5  and  C_6
REMARK    6  A    between atoms: C_6  and  C_7
REMARK    7  A    between atoms: C_7  and  C_13
REMARK    8  A    between atoms: N_8  and  O_9
REMARK    9  A    between atoms: O_9  and  C_10
REMARK   10  A    between atoms: C_10  and  C_11
REMARK   11  A    between atoms: C_11  and  N_12
REMARK   12  A    between atoms: C_16  and  C_19
REMARK                            x       y       z     vdW  Elec       q    Type
REMARK                         _______ _______ _______ _____ _____    ______ ____
ROOT
ATOM      1  C   UNL     1       6.797   3.188  -2.826  0.00  0.00    +0.000 C 
ATOM      2  N   UNL     1       6.046   4.003  -3.522  0.00  0.00    +0.000 NA
ENDROOT
BRANCH   1   3
ATOM      3  C   UNL     1       8.281   3.325  -2.981  0.00  0.00    +0.000 A 
ATOM      4  C   UNL     1       8.833   4.606  -3.079  0.00  0.00    +0.000 A 
ATOM      5  C   UNL     1      10.191   4.762  -3.371  0.00  0.00    +0.000 A 
ATOM      6  C   UNL     1      11.027   3.642  -3.504  0.00  0.00    +0.000 A 
ATOM      7  C   UNL     1      10.469   2.361  -3.385  0.00  0.00    +0.000 A 
ATOM      8  C   UNL     1       9.104   2.203  -3.123  0.00  0.00    +0.000 A 
BRANCH   6   9
ATOM      9  C   UNL     1      12.508   3.834  -3.724  0.00  0.00    +0.000 C 
ATOM     10  F   UNL     1      12.793   4.508  -4.871  0.00  0.00    +0.000 F 
ATOM     11  F   UNL     1      13.082   4.549  -2.716  0.00  0.00    +0.000 F 
ATOM     12  F   UNL     1      13.206   2.666  -3.792  0.00  0.00    +0.000 F 
ENDBRANCH   6   9
ENDBRANCH   1   3
BRANCH   1  13
ATOM     13  C   UNL     1       6.335   2.081  -1.844  0.00  0.00    +0.000 C 
BRANCH  13  14
ATOM     14  C   UNL     1       4.835   1.932  -1.701  0.00  0.00    +0.000 C 
BRANCH  14  15
ATOM     15  C   UNL     1       4.333   0.877  -0.751  0.00  0.00    +0.000 C 
BRANCH  15  16
ATOM     16  C   UNL     1       2.809   0.929  -0.800  0.00  0.00    +0.000 C 
BRANCH  16  18
ATOM     17  C   UNL     1       0.874  -0.035   0.073  0.00  0.00    +0.000 C 
ATOM     18  O   UNL     1       2.293  -0.049   0.088  0.00  0.00    +0.000 OA
ENDBRANCH  16  18
ENDBRANCH  15  16
ENDBRANCH  14  15
ENDBRANCH  13  14
ENDBRANCH   1  13
BRANCH   2  19
ATOM     19  O   UNL     1       4.692   3.746  -3.330  0.00  0.00    +0.000 OA
BRANCH  19  20
ATOM     20  C   UNL     1       3.813   4.554  -4.088  0.00  0.00    +0.000 C 
BRANCH  20  21
ATOM     21  C   UNL     1       2.381   4.125  -3.704  0.00  0.00    +0.000 C 
BRANCH  21  22
ATOM     22  N   UNL     1       1.356   4.894  -4.407  0.00  0.00    +0.000 NA
ATOM     23  H   UNL     1       1.446   5.878  -4.159  0.00  0.00    +0.000 HD
ATOM     24  H   UNL     1       0.431   4.603  -4.092  0.00  0.00    +0.000 HD
ENDBRANCH  21  22
ENDBRANCH  20  21
ENDBRANCH  19  20
ENDBRANCH   2  19
TORSDOF 11
