REMARK  Name = Folic acid
REMARK  11 active torsions:
REMARK  status: ('A' for Active; 'I' for Inactive)
REMARK    1  A    between atoms: C_8  and  C_9
REMARK    2  A    between atoms: C_9  and  N_10
REMARK    3  A    between atoms: N_10  and  C_11
REMARK    4  A    between atoms: C_14  and  C_17
REMARK    5  A    between atoms: N_19  and  CA_20
REMARK    6  A    between atoms: CA_20  and  CB_21
REMARK    7  A    between atoms: CA_20  and  C_26
REMARK    8  A    between atoms: CB_21  and  CG_22
REMARK    9  A    between atoms: CG_22  and  CD_23
REMARK   10  A    between atoms: CD_23  and  OE1_24
REMARK   11  A    between atoms: C_26  and  O_27
REMARK                            x       y       z     vdW  Elec       q    Type
REMARK                         _______ _______ _______ _____ _____    ______ ____
ROOT
ATOM      1  C   UNK A   0       6.659  -0.048  -0.042  0.00  0.00    +0.000 A 
ATOM      2  C   UNK A   0       7.577   0.727   0.675  0.00  0.00    +0.000 A 
ATOM      3  C   UNK A   0       8.948   0.571   0.485  0.00  0.00    +0.000 A 
ATOM      4  C   UNK A   0       9.425  -0.405  -0.399  0.00  0.00    +0.000 A 
ATOM      5  C   UNK A   0       8.512  -1.201  -1.093  0.00  0.00    +0.000 A 
ATOM      6  C   UNK A   0       7.140  -1.018  -0.917  0.00  0.00    +0.000 A 
ENDROOT
BRANCH   4   7
ATOM      7  C   UNK A   0      10.898  -0.550  -0.563  0.00  0.00    +0.000 C 
ATOM      8  O   UNK A   0      11.632   0.335  -0.142  0.00  0.00    +0.000 OA
ATOM      9  N   GLU A   1      11.363  -1.720  -1.144  0.00  0.00    +0.000 N 
ATOM     10  H   GLU A   1      10.678  -2.342  -1.518  0.00  0.00    +0.000 HD
BRANCH   9  11
ATOM     11  CA  GLU A   1      12.788  -2.098  -1.174  0.00  0.00    +0.000 C 
BRANCH  11  12
ATOM     12  C   GLU A   1      13.151  -3.265  -2.132  0.00  0.00    +0.000 C 
ATOM     13  OXT GLU A   1      14.299  -3.675  -2.265  0.00  0.00    +0.000 OA
BRANCH  12  14
ATOM     14  O   GLU A   1      12.142  -3.877  -2.786  0.00  0.00    +0.000 OA
ATOM     15  H   GLU A   1      11.241  -3.541  -2.684  0.00  0.00    +0.000 HD
ENDBRANCH  12  14
ENDBRANCH  11  12
BRANCH  11  16
ATOM     16  CB  GLU A   1      13.317  -2.513   0.225  0.00  0.00    +0.000 C 
BRANCH  16  17
ATOM     17  CG  GLU A   1      13.156  -1.447   1.304  0.00  0.00    +0.000 C 
BRANCH  17  18
ATOM     18  CD  GLU A   1      13.637  -1.728   2.699  0.00  0.00    +0.000 C 
ATOM     19  OE2 GLU A   1      13.509  -0.909   3.600  0.00  0.00    +0.000 OA
BRANCH  18  20
ATOM     20  OE1 GLU A   1      14.153  -2.948   2.924  0.00  0.00    +0.000 OA
ATOM     21  HE1 GLU A   1      14.209  -3.538   2.154  0.00  0.00    +0.000 HD
ENDBRANCH  18  20
ENDBRANCH  17  18
ENDBRANCH  16  17
ENDBRANCH  11  16
ENDBRANCH   9  11
ENDBRANCH   4   7
BRANCH   1  22
ATOM     22  N   UNK A   0       5.319   0.224   0.141  0.00  0.00    +0.000 N 
ATOM     23  H   UNK A   0       5.121   1.201  -0.029  0.00  0.00    +0.000 HD
BRANCH  22  24
ATOM     24  C   UNK A   0       4.264  -0.772  -0.012  0.00  0.00    +0.000 C 
BRANCH  24  32
ATOM     25  N   UNK A   0      -3.191   1.129  -0.001  0.00  0.00    +0.000 N 
ATOM     26  C   UNK A   0      -1.983   0.534   0.007  0.00  0.00    +0.000 A 
ATOM     27  N   UNK A   0      -1.905  -0.758  -0.010  0.00  0.00    +0.000 NA
ATOM     28  C   UNK A   0      -0.654  -1.352   0.002  0.00  0.00    +0.000 A 
ATOM     29  O   UNK A   0      -0.525  -2.577  -0.004  0.00  0.00    +0.000 OA
ATOM     30  C   UNK A   0       0.569  -0.498   0.012  0.00  0.00    +0.000 A 
ATOM     31  N   UNK A   0       1.816  -1.064   0.004  0.00  0.00    +0.000 NA
ATOM     32  C   UNK A   0       2.859  -0.192  -0.002  0.00  0.00    +0.000 A 
ATOM     33  C   UNK A   0       2.612   1.181  -0.020  0.00  0.00    +0.000 A 
ATOM     34  N   UNK A   0       1.377   1.740  -0.004  0.00  0.00    +0.000 NA
ATOM     35  C   UNK A   0       0.349   0.874   0.017  0.00  0.00    +0.000 A 
ATOM     36  N   UNK A   0      -0.937   1.384   0.033  0.00  0.00    +0.000 N 
ATOM     37  H   UNK A   0      -4.000   0.520  -0.038  0.00  0.00    +0.000 HD
ATOM     38  H   UNK A   0      -3.345   2.125  -0.014  0.00  0.00    +0.000 HD
ATOM     39  H   UNK A   0      -1.014   2.387   0.046  0.00  0.00    +0.000 HD
ENDBRANCH  24  32
ENDBRANCH  22  24
ENDBRANCH   1  22
TORSDOF 11
