REMARK  Name = Fomepizole
REMARK  1 active torsions:
REMARK  status: ('A' for Active; 'I' for Inactive)
REMARK    1  A    between atoms: C_1  and  C_2
REMARK                            x       y       z     vdW  Elec       q    Type
REMARK                         _______ _______ _______ _____ _____    ______ ____
ROOT
ATOM      1  C   UNL     1       2.317  -0.063  -0.005  0.00  0.00    +0.000 C 
ATOM      2  C   UNL     1       0.840   0.008  -0.000  0.00  0.00    +0.000 A 
ATOM      3  C   UNL     1       0.040   1.130   0.001  0.00  0.00    +0.000 A 
ATOM      4  N   UNL     1      -1.249   0.684  -0.001  0.00  0.00    +0.000 N 
ATOM      5  N   UNL     1      -1.349  -0.654   0.001  0.00  0.00    +0.000 NA
ATOM      6  C   UNL     1      -0.079  -1.065   0.001  0.00  0.00    +0.000 A 
ATOM      7  H   UNL     1      -2.103   1.232  -0.005  0.00  0.00    +0.000 HD
ENDROOT
TORSDOF 0
