REMARK  Name = Formestane
REMARK  3 active torsions:
REMARK  status: ('A' for Active; 'I' for Inactive)
REMARK    1  A    between atoms: C_7  and  C_8
REMARK    2  A    between atoms: C_18  and  O_19
REMARK    3  A    between atoms: C_24  and  C_25
REMARK                            x       y       z     vdW  Elec       q    Type
REMARK                         _______ _______ _______ _____ _____    ______ ____
ROOT
ATOM      1  C   UNL     1       1.758  -0.193  -0.236  0.00  0.00    +0.000 C 
ATOM      2  C   UNL     1       2.233  -0.069  -1.611  0.00  0.00    +0.000 C 
ATOM      3  C   UNL     1       3.520  -0.179  -0.872  0.00  0.00    +0.000 C 
ATOM      4  C   UNL     1       2.800  -0.755   0.862  0.00  0.00    +0.000 C 
ATOM      5  O   UNL     1       2.673  -0.880   2.052  0.00  0.00    +0.000 OA
ATOM      6  C   UNL     1       2.657  -1.807   0.076  0.00  0.00    +0.000 C 
ATOM      7  C   UNL     1       1.876  -2.978  -0.169  0.00  0.00    +0.000 C 
ATOM      8  C   UNL     1       4.379  -1.725   0.671  0.00  0.00    +0.000 C 
ATOM      9  C   UNL     1       4.889  -0.110   1.419  0.00  0.00    +0.000 C 
ATOM     10  C   UNL     1       4.210   1.354   0.871  0.00  0.00    +0.000 C 
ATOM     11  C   UNL     1       2.459   1.326   0.654  0.00  0.00    +0.000 C 
ATOM     12  C   UNL     1       1.970   2.555  -0.051  0.00  0.00    +0.000 C 
ATOM     13  C   UNL     1       2.498   3.804   0.602  0.00  0.00    +0.000 C 
ATOM     14  C   UNL     1       3.986   3.887   0.823  0.00  0.00    +0.000 C 
ATOM     15  C   UNL     1       4.680   5.011   0.572  0.00  0.00    +0.000 C 
ATOM     16  C   UNL     1       6.021   5.038   1.173  0.00  0.00    +0.000 C 
ATOM     17  O   UNL     1       6.262   5.207   2.367  0.00  0.00    +0.000 OA
ATOM     18  C   UNL     1       6.984   4.343   0.352  0.00  0.00    +0.000 C 
ATOM     19  C   UNL     1       6.443   2.887   1.023  0.00  0.00    +0.000 C 
ATOM     20  C   UNL     1       4.733   2.698   1.463  0.00  0.00    +0.000 C 
ATOM     21  C   UNL     1       4.273   2.597   2.937  0.00  0.00    +0.000 C 
ENDROOT
BRANCH  15  22
ATOM     22  O   UNL     1       4.334   6.020  -0.272  0.00  0.00    +0.000 OA
ATOM     23  H   UNL     1       3.414   5.882  -0.530  0.00  0.00    +0.000 HD
ENDBRANCH  15  22
TORSDOF 1
