REMARK  Name = Formoterol
REMARK  12 active torsions:
REMARK  status: ('A' for Active; 'I' for Inactive)
REMARK    1  A    between atoms: C_1  and  O_2
REMARK    2  A    between atoms: O_2  and  C_3
REMARK    3  A    between atoms: C_6  and  C_7
REMARK    4  A    between atoms: C_7  and  C_8
REMARK    5  A    between atoms: C_8  and  C_9
REMARK    6  A    between atoms: C_8  and  N_10
REMARK    7  A    between atoms: N_10  and  C_11
REMARK    8  A    between atoms: C_11  and  C_12
REMARK    9  A    between atoms: C_12  and  O_13
REMARK   10  A    between atoms: C_12  and  C_14
REMARK   11  A    between atoms: C_16  and  N_17
REMARK   12  A    between atoms: C_20  and  O_21
REMARK                            x       y       z     vdW  Elec       q    Type
REMARK                         _______ _______ _______ _____ _____    ______ ____
ROOT
ATOM      1  C   UNL     1       5.368   8.533   4.463  0.00  0.00    +0.000 C 
ENDROOT
BRANCH   1   2
ATOM      2  C   UNL     1       4.706   9.176   5.674  0.00  0.00    +0.000 A 
ATOM      3  C   UNL     1       4.770  10.567   5.876  0.00  0.00    +0.000 A 
ATOM      4  C   UNL     1       4.389  11.134   7.104  0.00  0.00    +0.000 A 
ATOM      5  C   UNL     1       3.784  10.312   8.062  0.00  0.00    +0.000 A 
ATOM      6  C   UNL     1       3.689   8.945   7.875  0.00  0.00    +0.000 A 
ATOM      7  C   UNL     1       4.160   8.381   6.700  0.00  0.00    +0.000 A 
BRANCH   4   8
ATOM      8  N   UNL     1       4.709  12.490   7.317  0.00  0.00    +0.000 N 
ATOM      9  C   UNL     1       4.743  13.164   8.508  0.00  0.00    +0.000 C 
ATOM     10  O   UNL     1       5.004  14.353   8.594  0.00  0.00    +0.000 OA
ATOM     11  H   UNL     1       5.132  13.011   6.556  0.00  0.00    +0.000 HD
ENDBRANCH   4   8
BRANCH   5  12
ATOM     12  O   UNL     1       3.208  10.770   9.211  0.00  0.00    +0.000 OA
ATOM     13  H   UNL     1       2.787  11.619   8.994  0.00  0.00    +0.000 HD
ENDBRANCH   5  12
ENDBRANCH   1   2
BRANCH   1  14
ATOM     14  O   UNL     1       5.391   9.418   3.341  0.00  0.00    +0.000 OA
ATOM     15  H   UNL     1       4.467   9.570   3.087  0.00  0.00    +0.000 HD
ENDBRANCH   1  14
BRANCH   1  16
ATOM     16  C   UNL     1       4.675   7.228   4.054  0.00  0.00    +0.000 C 
BRANCH  16  17
ATOM     17  N   UNL     1       5.353   6.527   2.961  0.00  0.00    +0.000 NA
ATOM     18  H   UNL     1       5.378   7.138   2.143  0.00  0.00    +0.000 HD
BRANCH  17  19
ATOM     19  C   UNL     1       4.657   5.265   2.674  0.00  0.00    +0.000 C 
ATOM     20  C   UNL     1       4.700   4.343   3.919  0.00  0.00    +0.000 C 
BRANCH  19  21
ATOM     21  C   UNL     1       5.286   4.563   1.453  0.00  0.00    +0.000 C 
BRANCH  21  25
ATOM     22  C   UNL     1       3.048   1.097   0.142  0.00  0.00    +0.000 A 
ATOM     23  C   UNL     1       4.229   1.470  -0.505  0.00  0.00    +0.000 A 
ATOM     24  C   UNL     1       4.985   2.559  -0.049  0.00  0.00    +0.000 A 
ATOM     25  C   UNL     1       4.503   3.349   0.995  0.00  0.00    +0.000 A 
ATOM     26  C   UNL     1       3.278   2.990   1.578  0.00  0.00    +0.000 A 
ATOM     27  C   UNL     1       2.597   1.844   1.214  0.00  0.00    +0.000 A 
BRANCH  22  29
ATOM     28  C   UNL     1       1.001  -0.019  -0.156  0.00  0.00    +0.000 C 
ATOM     29  O   UNL     1       2.421  -0.036  -0.292  0.00  0.00    +0.000 OA
ENDBRANCH  22  29
ENDBRANCH  21  25
ENDBRANCH  19  21
ENDBRANCH  17  19
ENDBRANCH  16  17
ENDBRANCH   1  16
TORSDOF 10
