REMARK  Name = Fosamprenavir
REMARK  19 active torsions:
REMARK  status: ('A' for Active; 'I' for Inactive)
REMARK    1  A    between atoms: C_1  and  C_2
REMARK    2  A    between atoms: C_2  and  C_3
REMARK    3  A    between atoms: C_2  and  C_4
REMARK    4  A    between atoms: C_4  and  N_5
REMARK    5  A    between atoms: N_5  and  C_6
REMARK    6  A    between atoms: N_5  and  S_30
REMARK    7  A    between atoms: C_6  and  C_7
REMARK    8  A    between atoms: C_7  and  O_8
REMARK    9  A    between atoms: C_7  and  C_13
REMARK   10  A    between atoms: O_8  and  P_9
REMARK   11  A    between atoms: P_9  and  O_10
REMARK   12  A    between atoms: P_9  and  O_11
REMARK   13  A    between atoms: C_13  and  C_14
REMARK   14  A    between atoms: C_13  and  N_21
REMARK   15  A    between atoms: C_14  and  C_15
REMARK   16  A    between atoms: C_22  and  O_24
REMARK   17  A    between atoms: O_24  and  C_25
REMARK   18  A    between atoms: S_30  and  C_33
REMARK   19  A    between atoms: C_36  and  N_37
REMARK                            x       y       z     vdW  Elec       q    Type
REMARK                         _______ _______ _______ _____ _____    ______ ____
ROOT
ATOM      1  C   UNL     1       0.853  -8.619  -4.482  0.00  0.00    +0.000 C 
ENDROOT
BRANCH   1   2
ATOM      2  C   UNL     1       1.940  -9.714  -3.978  0.00  0.00    +0.000 C 
BRANCH   2   3
ATOM      3  N   UNL     1       3.077  -9.079  -3.301  0.00  0.00    +0.000 N 
ATOM      4  C   UNL     1       4.099  -8.282  -3.788  0.00  0.00    +0.000 C 
ATOM      5  O   UNL     1       4.332  -8.326  -4.984  0.00  0.00    +0.000 OA
ATOM      6  H   UNL     1       2.985  -9.195  -2.316  0.00  0.00    +0.000 HD
BRANCH   4   7
ATOM      7  O   UNL     1       4.854  -7.446  -2.971  0.00  0.00    +0.000 OA
BRANCH   7   8
ATOM      8  C   UNL     1       4.899  -7.354  -1.510  0.00  0.00    +0.000 C 
ATOM      9  C   UNL     1       4.274  -8.568  -0.991  0.00  0.00    +0.000 C 
ATOM     10  C   UNL     1       4.710  -8.935   0.335  0.00  0.00    +0.000 C 
ATOM     11  O   UNL     1       6.011  -8.382   0.375  0.00  0.00    +0.000 OA
ATOM     12  C   UNL     1       6.226  -7.542  -0.815  0.00  0.00    +0.000 C 
ENDBRANCH   7   8
ENDBRANCH   4   7
ENDBRANCH   2   3
BRANCH   2  13
ATOM     13  C   UNL     1       1.184 -10.727  -2.983  0.00  0.00    +0.000 C 
BRANCH  13  14
ATOM     14  C   UNL     1       0.141 -11.544  -3.662  0.00  0.00    +0.000 A 
ATOM     15  C   UNL     1       0.006 -11.525  -5.053  0.00  0.00    +0.000 A 
ATOM     16  C   UNL     1      -1.108 -12.058  -5.654  0.00  0.00    +0.000 A 
ATOM     17  C   UNL     1      -1.969 -12.825  -4.884  0.00  0.00    +0.000 A 
ATOM     18  C   UNL     1      -1.823 -12.901  -3.494  0.00  0.00    +0.000 A 
ATOM     19  C   UNL     1      -0.794 -12.216  -2.869  0.00  0.00    +0.000 A 
ENDBRANCH  13  14
ENDBRANCH   2  13
ENDBRANCH   1   2
BRANCH   1  20
ATOM     20  O   UNL     1       0.228  -7.843  -3.425  0.00  0.00    +0.000 OA
BRANCH  20  21
ATOM     21  P   UNL     1       1.445  -6.920  -2.613  0.00  0.00    +0.000 P 
ATOM     22  O   UNL     1       2.535  -6.094  -1.887  0.00  0.00    +0.000 OA
BRANCH  21  23
ATOM     23  O   UNL     1       0.185  -7.248  -1.203  0.00  0.00    +0.000 OA
ATOM     24  H   UNL     1      -0.575  -6.807  -0.862  0.00  0.00    +0.000 HD
ENDBRANCH  21  23
BRANCH  21  25
ATOM     25  O   UNL     1       1.752  -8.224  -1.696  0.00  0.00    +0.000 OA
ATOM     26  H   UNL     1       1.275  -8.843  -2.207  0.00  0.00    +0.000 HD
ENDBRANCH  21  25
ENDBRANCH  20  21
ENDBRANCH   1  20
BRANCH   1  27
ATOM     27  C   UNL     1       1.300  -7.650  -5.535  0.00  0.00    +0.000 C 
BRANCH  27  28
ATOM     28  N   UNL     1       2.019  -6.560  -4.936  0.00  0.00    +0.000 NA
BRANCH  28  29
ATOM     29  S   UNL     1       3.271  -5.828  -6.064  0.00  0.00    +0.000 S 
ATOM     30  O   UNL     1       2.484  -4.970  -6.916  0.00  0.00    +0.000 OA
ATOM     31  O   UNL     1       4.304  -5.265  -5.210  0.00  0.00    +0.000 OA
BRANCH  29  32
ATOM     32  C   UNL     1       4.143  -6.998  -7.231  0.00  0.00    +0.000 A 
ATOM     33  C   UNL     1       3.741  -8.300  -7.568  0.00  0.00    +0.000 A 
ATOM     34  C   UNL     1       4.537  -9.199  -8.277  0.00  0.00    +0.000 A 
ATOM     35  C   UNL     1       5.645  -8.742  -8.947  0.00  0.00    +0.000 A 
ATOM     36  C   UNL     1       6.084  -7.444  -8.657  0.00  0.00    +0.000 A 
ATOM     37  C   UNL     1       5.362  -6.582  -7.789  0.00  0.00    +0.000 A 
BRANCH  35  38
ATOM     38  N   UNL     1       6.341  -9.619  -9.768  0.00  0.00    +0.000 N 
ATOM     39  H   UNL     1       5.855 -10.458 -10.070  0.00  0.00    +0.000 HD
ATOM     40  H   UNL     1       6.996  -9.225 -10.429  0.00  0.00    +0.000 HD
ENDBRANCH  35  38
ENDBRANCH  29  32
ENDBRANCH  28  29
BRANCH  28  41
ATOM     41  C   UNL     1       0.892  -5.405  -4.226  0.00  0.00    +0.000 C 
BRANCH  41  43
ATOM     42  C   UNL     1       0.229  -4.881  -1.373  0.00  0.00    +0.000 C 
ATOM     43  C   UNL     1      -0.542  -5.794  -2.955  0.00  0.00    +0.000 C 
ATOM     44  C   UNL     1      -1.815  -7.193  -3.373  0.00  0.00    +0.000 C 
ENDBRANCH  41  43
ENDBRANCH  28  41
ENDBRANCH  27  28
ENDBRANCH   1  27
TORSDOF 17
