REMARK  Name = Fosaprepitant
REMARK  12 active torsions:
REMARK  status: ('A' for Active; 'I' for Inactive)
REMARK    1  A    between atoms: C_1  and  C_2
REMARK    2  A    between atoms: C_2  and  O_3
REMARK    3  A    between atoms: C_2  and  C_28
REMARK    4  A    between atoms: O_3  and  C_4
REMARK    5  A    between atoms: N_8  and  C_9
REMARK    6  A    between atoms: C_9  and  C_10
REMARK    7  A    between atoms: N_14  and  P_16
REMARK    8  A    between atoms: P_16  and  O_17
REMARK    9  A    between atoms: P_16  and  O_18
REMARK   10  A    between atoms: C_20  and  C_21
REMARK   11  A    between atoms: C_30  and  C_38
REMARK   12  A    between atoms: C_32  and  C_34
REMARK                            x       y       z     vdW  Elec       q    Type
REMARK                         _______ _______ _______ _____ _____    ______ ____
ROOT
ATOM      1  C   UNL     1       2.406   0.264  -2.165  0.00  0.00    +0.000 C 
ATOM      2  O   UNL     1       2.476  -1.159  -2.262  0.00  0.00    +0.000 OA
ATOM      3  C   UNL     1       2.092  -1.647  -3.554  0.00  0.00    +0.000 C 
ATOM      4  C   UNL     1       0.762  -1.074  -4.099  0.00  0.00    +0.000 C 
ATOM      5  N   UNL     1       0.690   0.405  -4.019  0.00  0.00    +0.000 NA
ATOM      6  C   UNL     1       0.961   0.812  -2.615  0.00  0.00    +0.000 C 
ENDROOT
BRANCH   6   7
ATOM      7  C   UNL     1      -0.294   0.542  -1.749  0.00  0.00    +0.000 A 
ATOM      8  C   UNL     1      -0.714  -0.781  -1.445  0.00  0.00    +0.000 A 
ATOM      9  C   UNL     1      -1.562  -1.067  -0.383  0.00  0.00    +0.000 A 
ATOM     10  C   UNL     1      -2.070  -0.017   0.353  0.00  0.00    +0.000 A 
ATOM     11  F   UNL     1      -2.778  -0.290   1.454  0.00  0.00    +0.000 F 
ATOM     12  C   UNL     1      -1.747   1.305   0.044  0.00  0.00    +0.000 A 
ATOM     13  C   UNL     1      -0.872   1.596  -1.012  0.00  0.00    +0.000 A 
ENDBRANCH   6   7
BRANCH   1  14
ATOM     14  O   UNL     1       2.934   0.804  -0.942  0.00  0.00    +0.000 OA
BRANCH  14  16
ATOM     15  C   UNL     1       1.309  -0.141   0.510  0.00  0.00    +0.000 C 
ATOM     16  C   UNL     1       2.758  -0.060   0.182  0.00  0.00    +0.000 C 
BRANCH  16  17
ATOM     17  C   UNL     1       3.269   0.512   1.456  0.00  0.00    +0.000 A 
ATOM     18  C   UNL     1       3.486  -0.386   2.504  0.00  0.00    +0.000 A 
ATOM     19  C   UNL     1       3.521   0.087   3.807  0.00  0.00    +0.000 A 
ATOM     20  C   UNL     1       3.473   1.470   4.029  0.00  0.00    +0.000 A 
ATOM     21  C   UNL     1       3.232   2.369   2.982  0.00  0.00    +0.000 A 
ATOM     22  C   UNL     1       3.118   1.878   1.693  0.00  0.00    +0.000 A 
BRANCH  21  23
ATOM     23  C   UNL     1       3.030   3.831   3.247  0.00  0.00    +0.000 C 
ATOM     24  F   UNL     1       2.040   4.060   4.150  0.00  0.00    +0.000 F 
ATOM     25  F   UNL     1       4.152   4.410   3.741  0.00  0.00    +0.000 F 
ATOM     26  F   UNL     1       2.691   4.537   2.131  0.00  0.00    +0.000 F 
ENDBRANCH  21  23
BRANCH  19  27
ATOM     27  C   UNL     1       3.477  -0.888   4.948  0.00  0.00    +0.000 C 
ATOM     28  F   UNL     1       2.341  -1.643   4.929  0.00  0.00    +0.000 F 
ATOM     29  F   UNL     1       4.513  -1.765   4.926  0.00  0.00    +0.000 F 
ATOM     30  F   UNL     1       3.503  -0.282   6.163  0.00  0.00    +0.000 F 
ENDBRANCH  19  27
ENDBRANCH  16  17
ENDBRANCH  14  16
ENDBRANCH   1  14
BRANCH   5  31
ATOM     31  C   UNL     1       1.670   0.919  -4.990  0.00  0.00    +0.000 C 
BRANCH  31  32
ATOM     32  C   UNL     1       1.729   2.409  -4.999  0.00  0.00    +0.000 A 
ATOM     33  N   UNL     1       1.315   3.065  -6.040  0.00  0.00    +0.000 NA
ATOM     34  C   UNL     1       1.493   4.383  -5.709  0.00  0.00    +0.000 A 
ATOM     35  O   UNL     1       1.335   5.298  -6.485  0.00  0.00    +0.000 OA
ATOM     36  N   UNL     1       1.934   4.465  -4.386  0.00  0.00    +0.000 N 
ATOM     37  N   UNL     1       2.230   3.194  -3.986  0.00  0.00    +0.000 N 
ATOM     38  H   UNL     1       2.502   2.971  -3.038  0.00  0.00    +0.000 HD
BRANCH  36  39
ATOM     39  P   UNL     1       2.252   5.965  -3.481  0.00  0.00    +0.000 P 
ATOM     40  O   UNL     1       2.529   7.269  -2.694  0.00  0.00    +0.000 OA
BRANCH  39  41
ATOM     41  O   UNL     1       2.183   6.847  -4.853  0.00  0.00    +0.000 OA
ATOM     42  H   UNL     1       2.119   6.439  -5.740  0.00  0.00    +0.000 HD
ENDBRANCH  39  41
BRANCH  39  43
ATOM     43  O   UNL     1       0.668   5.911  -3.057  0.00  0.00    +0.000 OA
ATOM     44  H   UNL     1       0.217   5.072  -3.241  0.00  0.00    +0.000 HD
ENDBRANCH  39  43
ENDBRANCH  36  39
ENDBRANCH  31  32
ENDBRANCH   5  31
TORSDOF 11
