REMARK  Name = Foscarnet
REMARK  4 active torsions:
REMARK  status: ('A' for Active; 'I' for Inactive)
REMARK    1  A    between atoms: O_1  and  C_2
REMARK    2  A    between atoms: C_2  and  P_4
REMARK    3  A    between atoms: P_4  and  O_5
REMARK    4  A    between atoms: P_4  and  O_6
REMARK                            x       y       z     vdW  Elec       q    Type
REMARK                         _______ _______ _______ _____ _____    ______ ____
ROOT
ATOM      1  P   UNL     1       3.402   0.383   1.607  0.00  0.00    +0.000 P 
ATOM      2  O   UNL     1       4.176   0.668   2.917  0.00  0.00    +0.000 OA
ENDROOT
BRANCH   1   3
ATOM      3  C   UNL     1       2.487   0.045   0.059  0.00  0.00    +0.000 C 
ATOM      4  O   UNL     1       3.133  -0.146  -0.969  0.00  0.00    +0.000 OA
BRANCH   3   5
ATOM      5  O   UNL     1       1.120   0.010   0.051  0.00  0.00    +0.000 OA
ATOM      6  H   UNL     1       0.702   0.202   0.905  0.00  0.00    +0.000 HD
ENDBRANCH   3   5
ENDBRANCH   1   3
BRANCH   1   7
ATOM      7  O   UNL     1       3.928  -1.194   1.581  0.00  0.00    +0.000 OA
ATOM      8  H   UNL     1       3.649  -1.756   0.832  0.00  0.00    +0.000 HD
ENDBRANCH   1   7
BRANCH   1   9
ATOM      9  O   UNL     1       4.595   1.096   0.690  0.00  0.00    +0.000 OA
ATOM     10  H   UNL     1       4.468   1.024  -0.282  0.00  0.00    +0.000 HD
ENDBRANCH   1   9
TORSDOF 4
