REMARK  Name = Fosdenopterin
REMARK  3 active torsions:
REMARK  status: ('A' for Active; 'I' for Inactive)
REMARK    1  A    between atoms: P_5  and  O_6
REMARK    2  A    between atoms: C_11  and  O_12
REMARK    3  A    between atoms: C_11  and  O_13
REMARK                            x       y       z     vdW  Elec       q    Type
REMARK                         _______ _______ _______ _____ _____    ______ ____
ROOT
ATOM      1  C   UNL     1       2.220   0.106  -0.129  0.00  0.00    +0.000 C 
ATOM      2  C   UNL     1       2.465   1.259  -0.976  0.00  0.00    +0.000 C 
ATOM      3  O   UNL     1       3.900   0.885  -1.092  0.00  0.00    +0.000 OA
ATOM      4  P   UNL     1       4.477   1.914  -2.358  0.00  0.00    +0.000 P 
ATOM      5  O   UNL     1       4.993   2.835  -3.490  0.00  0.00    +0.000 OA
ATOM      6  O   UNL     1       3.907   0.051  -2.562  0.00  0.00    +0.000 OA
ATOM      7  C   UNL     1       3.122  -0.873  -1.111  0.00  0.00    +0.000 C 
ATOM      8  C   UNL     1       4.315  -1.465  -0.287  0.00  0.00    +0.000 C 
ATOM      9  C   UNL     1       4.574  -0.967   1.185  0.00  0.00    +0.000 C 
ATOM     10  N   UNL     1       4.089  -1.825   2.293  0.00  0.00    +0.000 N 
ATOM     11  C   UNL     1       4.138  -1.308   3.605  0.00  0.00    +0.000 A 
ATOM     12  C   UNL     1       4.315   0.008   3.876  0.00  0.00    +0.000 A 
ATOM     13  N   UNL     1       4.479   0.412   5.176  0.00  0.00    +0.000 N 
ATOM     14  C   UNL     1       4.342  -0.467   6.204  0.00  0.00    +0.000 A 
ATOM     15  N   UNL     1       4.472   0.065   7.440  0.00  0.00    +0.000 N 
ATOM     16  N   UNL     1       4.112  -1.724   6.068  0.00  0.00    +0.000 NA
ATOM     17  C   UNL     1       3.988  -2.253   4.787  0.00  0.00    +0.000 A 
ATOM     18  O   UNL     1       3.764  -3.422   4.565  0.00  0.00    +0.000 OA
ATOM     19  N   UNL     1       4.296   0.914   2.828  0.00  0.00    +0.000 N 
ATOM     20  C   UNL     1       4.046   0.472   1.442  0.00  0.00    +0.000 C 
ATOM     21  O   UNL     1       2.634   0.451   1.211  0.00  0.00    +0.000 OA
ATOM     22  H   UNL     1       3.697  -2.753   2.203  0.00  0.00    +0.000 HD
ATOM     23  H   UNL     1       4.578   1.398   5.341  0.00  0.00    +0.000 HD
ATOM     24  H   UNL     1       4.607   1.042   7.641  0.00  0.00    +0.000 HD
ATOM     25  H   UNL     1       4.350  -0.569   8.221  0.00  0.00    +0.000 HD
ATOM     26  H   UNL     1       4.833   1.765   2.938  0.00  0.00    +0.000 HD
ENDROOT
BRANCH   4  27
ATOM     27  O   UNL     1       5.345   2.469  -1.121  0.00  0.00    +0.000 OA
ATOM     28  H   UNL     1       5.570   3.396  -1.366  0.00  0.00    +0.000 HD
ENDBRANCH   4  27
BRANCH   8  29
ATOM     29  O   UNL     1       4.212  -2.882  -0.422  0.00  0.00    +0.000 OA
ATOM     30  H   UNL     1       4.401  -3.292   0.434  0.00  0.00    +0.000 HD
ENDBRANCH   8  29
BRANCH   8  31
ATOM     31  O   UNL     1       5.494  -1.090  -1.015  0.00  0.00    +0.000 OA
ATOM     32  H   UNL     1       5.121  -0.459  -1.669  0.00  0.00    +0.000 HD
ENDBRANCH   8  31
TORSDOF 3
