REMARK  Name = Fosfomycin
REMARK  4 active torsions:
REMARK  status: ('A' for Active; 'I' for Inactive)
REMARK    1  A    between atoms: C_1  and  C_2
REMARK    2  A    between atoms: C_4  and  P_5
REMARK    3  A    between atoms: P_5  and  O_6
REMARK    4  A    between atoms: P_5  and  O_7
REMARK                            x       y       z     vdW  Elec       q    Type
REMARK                         _______ _______ _______ _____ _____    ______ ____
ROOT
ATOM      1  P   UNL     1       2.321  -1.734  -2.307  0.00  0.00    +0.000 P 
ATOM      2  O   UNL     1       1.546  -2.508  -3.402  0.00  0.00    +0.000 OA
ENDROOT
BRANCH   1   6
ATOM      3  C   UNL     1       0.946  -0.045   0.030  0.00  0.00    +0.000 C 
ATOM      4  C   UNL     1       2.431  -0.128   0.074  0.00  0.00    +0.000 C 
ATOM      5  O   UNL     1       3.140   0.617  -0.920  0.00  0.00    +0.000 OA
ATOM      6  C   UNL     1       3.236  -0.819  -1.013  0.00  0.00    +0.000 C 
ENDBRANCH   1   6
BRANCH   1   7
ATOM      7  O   UNL     1       2.061  -0.269  -3.020  0.00  0.00    +0.000 OA
ATOM      8  H   UNL     1       2.318   0.522  -2.510  0.00  0.00    +0.000 HD
ENDBRANCH   1   7
BRANCH   1   9
ATOM      9  O   UNL     1       3.793  -2.071  -2.962  0.00  0.00    +0.000 OA
ATOM     10  H   UNL     1       4.616  -1.890  -2.491  0.00  0.00    +0.000 HD
ENDBRANCH   1   9
TORSDOF 3
