REMARK  Name = Fosinopril
REMARK  19 active torsions:
REMARK  status: ('A' for Active; 'I' for Inactive)
REMARK    1  A    between atoms: C_1  and  C_2
REMARK    2  A    between atoms: C_2  and  C_3
REMARK    3  A    between atoms: C_3  and  O_5
REMARK    4  A    between atoms: O_5  and  C_6
REMARK    5  A    between atoms: C_6  and  O_7
REMARK    6  A    between atoms: C_6  and  C_37
REMARK    7  A    between atoms: O_7  and  P_8
REMARK    8  A    between atoms: P_8  and  C_10
REMARK    9  A    between atoms: P_8  and  C_20
REMARK   10  A    between atoms: C_10  and  C_11
REMARK   11  A    between atoms: C_11  and  C_12
REMARK   12  A    between atoms: C_12  and  C_13
REMARK   13  A    between atoms: C_13  and  C_14
REMARK   14  A    between atoms: C_20  and  C_21
REMARK   15  A    between atoms: C_25  and  C_31
REMARK   16  A    between atoms: C_27  and  C_28
REMARK   17  A    between atoms: C_28  and  O_29
REMARK   18  A    between atoms: C_37  and  C_38
REMARK   19  A    between atoms: C_37  and  C_39
REMARK                            x       y       z     vdW  Elec       q    Type
REMARK                         _______ _______ _______ _____ _____    ______ ____
ROOT
ATOM      1  P   UNL     1       2.949  -2.888  -3.255  0.00  0.00    +0.000 P 
ATOM      2  O   UNL     1       2.713  -4.074  -2.329  0.00  0.00    +0.000 OA
ENDROOT
BRANCH   1   3
ATOM      3  C   UNL     1       2.790  -0.804  -2.548  0.00  0.00    +0.000 C 
BRANCH   3   4
ATOM      4  C   UNL     1       4.198  -0.114  -2.256  0.00  0.00    +0.000 C 
BRANCH   4   5
ATOM      5  C   UNL     1       4.337   0.970  -1.209  0.00  0.00    +0.000 C 
BRANCH   5   6
ATOM      6  C   UNL     1       5.717   1.322  -0.716  0.00  0.00    +0.000 C 
BRANCH   6   7
ATOM      7  C   UNL     1       5.610   2.538   0.178  0.00  0.00    +0.000 A 
ATOM      8  C   UNL     1       4.393   3.136   0.581  0.00  0.00    +0.000 A 
ATOM      9  C   UNL     1       4.382   4.398   1.153  0.00  0.00    +0.000 A 
ATOM     10  C   UNL     1       5.590   5.007   1.459  0.00  0.00    +0.000 A 
ATOM     11  C   UNL     1       6.797   4.363   1.179  0.00  0.00    +0.000 A 
ATOM     12  C   UNL     1       6.809   3.128   0.548  0.00  0.00    +0.000 A 
ENDBRANCH   6   7
ENDBRANCH   5   6
ENDBRANCH   4   5
ENDBRANCH   3   4
ENDBRANCH   1   3
BRANCH   1  13
ATOM     13  C   UNL     1       1.135  -2.647  -3.448  0.00  0.00    +0.000 C 
BRANCH  13  14
ATOM     14  C   UNL     1       0.384  -3.862  -4.108  0.00  0.00    +0.000 C 
ATOM     15  O   UNL     1       1.043  -4.797  -4.571  0.00  0.00    +0.000 OA
ATOM     16  N   UNL     1      -1.032  -3.978  -4.237  0.00  0.00    +0.000 N 
ATOM     17  C   UNL     1      -2.065  -2.946  -4.281  0.00  0.00    +0.000 C 
ATOM     18  C   UNL     1      -3.242  -3.401  -3.364  0.00  0.00    +0.000 C 
ATOM     19  C   UNL     1      -3.230  -4.910  -3.677  0.00  0.00    +0.000 C 
ATOM     20  C   UNL     1      -1.733  -5.277  -3.970  0.00  0.00    +0.000 C 
BRANCH  18  21
ATOM     21  C   UNL     1      -3.281  -3.079  -1.817  0.00  0.00    +0.000 C 
ATOM     22  C   UNL     1      -3.276  -1.552  -1.539  0.00  0.00    +0.000 C 
ATOM     23  C   UNL     1      -1.979  -0.871  -1.890  0.00  0.00    +0.000 C 
ATOM     24  C   UNL     1      -0.873  -1.655  -1.231  0.00  0.00    +0.000 C 
ATOM     25  C   UNL     1      -0.908  -3.161  -1.301  0.00  0.00    +0.000 C 
ATOM     26  C   UNL     1      -2.210  -3.787  -0.979  0.00  0.00    +0.000 C 
ENDBRANCH  18  21
BRANCH  20  27
ATOM     27  C   UNL     1      -1.662  -6.194  -5.190  0.00  0.00    +0.000 C 
ATOM     28  O   UNL     1      -2.216  -7.281  -5.264  0.00  0.00    +0.000 OA
BRANCH  27  29
ATOM     29  O   UNL     1      -0.979  -5.655  -6.228  0.00  0.00    +0.000 OA
ATOM     30  H   UNL     1      -0.494  -4.867  -5.897  0.00  0.00    +0.000 HD
ENDBRANCH  27  29
ENDBRANCH  20  27
ENDBRANCH  13  14
ENDBRANCH   1  13
BRANCH   1  31
ATOM     31  O   UNL     1       4.353  -2.565  -2.565  0.00  0.00    +0.000 OA
BRANCH  31  32
ATOM     32  C   UNL     1       4.693  -2.812  -1.168  0.00  0.00    +0.000 C 
BRANCH  32  33
ATOM     33  C   UNL     1       6.275  -2.701  -1.284  0.00  0.00    +0.000 C 
ATOM     34  C   UNL     1       6.927  -2.595   0.076  0.00  0.00    +0.000 C 
ATOM     35  C   UNL     1       6.860  -3.866  -2.102  0.00  0.00    +0.000 C 
ENDBRANCH  32  33
BRANCH  32  36
ATOM     36  O   UNL     1       4.160  -1.793  -0.165  0.00  0.00    +0.000 OA
BRANCH  36  37
ATOM     37  C   UNL     1       2.805  -1.711   0.157  0.00  0.00    +0.000 C 
ATOM     38  O   UNL     1       2.044  -2.613  -0.001  0.00  0.00    +0.000 OA
BRANCH  37  40
ATOM     39  C   UNL     1       0.814   0.072   0.443  0.00  0.00    +0.000 C 
ATOM     40  C   UNL     1       2.284  -0.236   0.542  0.00  0.00    +0.000 C 
ENDBRANCH  37  40
ENDBRANCH  36  37
ENDBRANCH  32  36
ENDBRANCH  31  32
ENDBRANCH   1  31
TORSDOF 16
