REMARK  Name = Fosnetupitant
REMARK  15 active torsions:
REMARK  status: ('A' for Active; 'I' for Inactive)
REMARK    1  A    between atoms: C_1  and  N_2
REMARK    2  A    between atoms: N_2  and  C_22
REMARK    3  A    between atoms: C_3  and  C_5
REMARK    4  A    between atoms: C_5  and  C_6
REMARK    5  A    between atoms: C_5  and  C_7
REMARK    6  A    between atoms: C_5  and  C_8
REMARK    7  A    between atoms: C_10  and  C_18
REMARK    8  A    between atoms: C_12  and  C_14
REMARK    9  A    between atoms: C_27  and  C_28
REMARK   10  A    between atoms: C_33  and  C_34
REMARK   11  A    between atoms: N_38  and  C_39
REMARK   12  A    between atoms: N_38  and  C_40
REMARK   13  A    between atoms: C_40  and  O_41
REMARK   14  A    between atoms: O_41  and  P_42
REMARK   15  A    between atoms: P_42  and  O_43
REMARK                            x       y       z     vdW  Elec       q    Type
REMARK                         _______ _______ _______ _____ _____    ______ ____
ROOT
ATOM      1  C   UNL     1       3.113   0.931   0.944  0.00  0.00    +0.000 A 
ATOM      2  C   UNL     1       4.315   1.586   0.638  0.00  0.00    +0.000 A 
ATOM      3  N   UNL     1       5.069   2.342   1.505  0.00  0.00    +0.000 NA
ATOM      4  C   UNL     1       4.696   2.414   2.792  0.00  0.00    +0.000 A 
ATOM      5  C   UNL     1       3.527   1.775   3.197  0.00  0.00    +0.000 A 
ATOM      6  C   UNL     1       2.714   1.030   2.296  0.00  0.00    +0.000 A 
ATOM      7  N   UNL     1       5.507   3.089   3.682  0.00  0.00    +0.000 N 
ATOM      8  C   UNL     1       6.002   2.506   4.925  0.00  0.00    +0.000 C 
ATOM      9  C   UNL     1       5.341   3.189   6.155  0.00  0.00    +0.000 C 
ATOM     10  N   UNL     1       5.498   4.742   6.130  0.00  0.00    +0.000 N 
ATOM     11  C   UNL     1       6.917   5.171   6.481  0.00  0.00    +0.000 C 
ATOM     12  C   UNL     1       5.059   5.288   4.726  0.00  0.00    +0.000 C 
ATOM     13  C   UNL     1       5.743   4.528   3.546  0.00  0.00    +0.000 C 
ENDROOT
BRANCH   6  14
ATOM     14  C   UNL     1       1.567   0.295   2.886  0.00  0.00    +0.000 A 
ATOM     15  C   UNL     1       0.478   1.018   3.415  0.00  0.00    +0.000 A 
ATOM     16  C   UNL     1      -0.640   0.359   3.934  0.00  0.00    +0.000 A 
ATOM     17  C   UNL     1      -0.740  -1.025   3.841  0.00  0.00    +0.000 A 
ATOM     18  C   UNL     1       0.302  -1.760   3.289  0.00  0.00    +0.000 A 
ATOM     19  C   UNL     1       1.476  -1.125   2.856  0.00  0.00    +0.000 A 
ATOM     20  C   UNL     1       2.532  -1.986   2.225  0.00  0.00    +0.000 C 
ENDBRANCH   6  14
BRANCH   1  22
ATOM     21  C   UNL     1       0.921   0.208  -0.032  0.00  0.00    +0.000 C 
ATOM     22  N   UNL     1       2.389   0.152  -0.071  0.00  0.00    +0.000 N 
ATOM     23  C   UNL     1       3.109  -0.799  -0.829  0.00  0.00    +0.000 C 
ATOM     24  O   UNL     1       4.352  -0.883  -0.697  0.00  0.00    +0.000 OA
BRANCH  23  25
ATOM     25  C   UNL     1       2.348  -1.854  -1.744  0.00  0.00    +0.000 C 
ATOM     26  C   UNL     1       1.481  -2.811  -0.873  0.00  0.00    +0.000 C 
ATOM     27  C   UNL     1       1.530  -1.120  -2.821  0.00  0.00    +0.000 C 
BRANCH  25  28
ATOM     28  C   UNL     1       3.345  -2.748  -2.548  0.00  0.00    +0.000 A 
ATOM     29  C   UNL     1       3.195  -4.144  -2.647  0.00  0.00    +0.000 A 
ATOM     30  C   UNL     1       4.174  -4.953  -3.232  0.00  0.00    +0.000 A 
ATOM     31  C   UNL     1       5.253  -4.348  -3.875  0.00  0.00    +0.000 A 
ATOM     32  C   UNL     1       5.412  -2.959  -3.837  0.00  0.00    +0.000 A 
ATOM     33  C   UNL     1       4.454  -2.173  -3.186  0.00  0.00    +0.000 A 
BRANCH  32  34
ATOM     34  C   UNL     1       6.652  -2.334  -4.415  0.00  0.00    +0.000 C 
ATOM     35  F   UNL     1       7.785  -2.844  -3.859  0.00  0.00    +0.000 F 
ATOM     36  F   UNL     1       6.756  -2.550  -5.754  0.00  0.00    +0.000 F 
ATOM     37  F   UNL     1       6.720  -0.986  -4.243  0.00  0.00    +0.000 F 
ENDBRANCH  32  34
BRANCH  30  38
ATOM     38  C   UNL     1       4.112  -6.444  -3.027  0.00  0.00    +0.000 C 
ATOM     39  F   UNL     1       4.124  -6.765  -1.701  0.00  0.00    +0.000 F 
ATOM     40  F   UNL     1       2.985  -7.005  -3.537  0.00  0.00    +0.000 F 
ATOM     41  F   UNL     1       5.162  -7.109  -3.579  0.00  0.00    +0.000 F 
ENDBRANCH  30  38
ENDBRANCH  25  28
ENDBRANCH  23  25
ENDBRANCH   1  22
BRANCH  10  42
ATOM     42  C   UNL     1       4.620   5.411   7.220  0.00  0.00    +0.000 C 
BRANCH  42  43
ATOM     43  O   UNL     1       4.847   6.799   7.344  0.00  0.00    +0.000 OA
BRANCH  43  44
ATOM     44  P   UNL     1       3.837   7.474   8.576  0.00  0.00    +0.000 P 
ATOM     45  O   UNL     1       4.251   8.789   7.918  0.00  0.00    +0.000 OA
ATOM     46  O   UNL     1       2.933   8.079   9.679  0.00  0.00    +0.000 OA
BRANCH  44  47
ATOM     47  O   UNL     1       5.065   6.974   9.537  0.00  0.00    +0.000 OA
ATOM     48  H   UNL     1       5.850   7.464   9.234  0.00  0.00    +0.000 HD
ENDBRANCH  44  47
ENDBRANCH  43  44
ENDBRANCH  42  43
ENDBRANCH  10  42
TORSDOF 10
