REMARK  Name = Fospropofol
REMARK  12 active torsions:
REMARK  status: ('A' for Active; 'I' for Inactive)
REMARK    1  A    between atoms: C_1  and  C_2
REMARK    2  A    between atoms: C_2  and  C_3
REMARK    3  A    between atoms: C_2  and  C_4
REMARK    4  A    between atoms: C_8  and  C_9
REMARK    5  A    between atoms: C_9  and  C_10
REMARK    6  A    between atoms: C_9  and  C_11
REMARK    7  A    between atoms: C_12  and  O_13
REMARK    8  A    between atoms: O_13  and  C_14
REMARK    9  A    between atoms: C_14  and  O_15
REMARK   10  A    between atoms: O_15  and  P_16
REMARK   11  A    between atoms: P_16  and  O_17
REMARK   12  A    between atoms: P_16  and  O_18
REMARK                            x       y       z     vdW  Elec       q    Type
REMARK                         _______ _______ _______ _____ _____    ______ ____
ROOT
ATOM      1  C   UNL     1       2.972  -0.110   1.247  0.00  0.00    +0.000 A 
ATOM      2  C   UNL     1       3.090  -1.371   1.902  0.00  0.00    +0.000 A 
ATOM      3  C   UNL     1       3.350  -1.487   3.262  0.00  0.00    +0.000 A 
ATOM      4  C   UNL     1       3.580  -0.340   4.004  0.00  0.00    +0.000 A 
ATOM      5  C   UNL     1       3.521   0.941   3.407  0.00  0.00    +0.000 A 
ATOM      6  C   UNL     1       3.198   1.067   2.020  0.00  0.00    +0.000 A 
ENDROOT
BRANCH   1   8
ATOM      7  C   UNL     1       0.898  -0.092  -0.098  0.00  0.00    +0.000 C 
ATOM      8  C   UNL     1       2.422  -0.248  -0.183  0.00  0.00    +0.000 C 
ATOM      9  C   UNL     1       2.995   0.667  -1.247  0.00  0.00    +0.000 C 
ENDBRANCH   1   8
BRANCH   5  10
ATOM     10  C   UNL     1       3.754   2.153   4.333  0.00  0.00    +0.000 C 
ATOM     11  C   UNL     1       5.159   2.102   4.938  0.00  0.00    +0.000 C 
ATOM     12  C   UNL     1       3.586   3.549   3.713  0.00  0.00    +0.000 C 
ENDBRANCH   5  10
BRANCH   6  13
ATOM     13  O   UNL     1       3.123   2.397   1.660  0.00  0.00    +0.000 OA
BRANCH  13  14
ATOM     14  C   UNL     1       2.798   2.823   0.373  0.00  0.00    +0.000 C 
BRANCH  14  15
ATOM     15  O   UNL     1       2.800   4.161  -0.099  0.00  0.00    +0.000 OA
BRANCH  15  16
ATOM     16  P   UNL     1       2.895   4.253  -1.724  0.00  0.00    +0.000 P 
ATOM     17  O   UNL     1       1.827   3.572  -2.536  0.00  0.00    +0.000 OA
BRANCH  16  18
ATOM     18  O   UNL     1       2.934   5.831  -1.836  0.00  0.00    +0.000 OA
ATOM     19  H   UNL     1       2.777   6.154  -0.930  0.00  0.00    +0.000 HD
ENDBRANCH  16  18
BRANCH  16  20
ATOM     20  O   UNL     1       4.404   3.846  -2.024  0.00  0.00    +0.000 OA
ATOM     21  H   UNL     1       4.665   2.939  -1.785  0.00  0.00    +0.000 HD
ENDBRANCH  16  20
ENDBRANCH  15  16
ENDBRANCH  14  15
ENDBRANCH  13  14
ENDBRANCH   6  13
TORSDOF 8
