REMARK  Name = Fosphenytoin
REMARK  7 active torsions:
REMARK  status: ('A' for Active; 'I' for Inactive)
REMARK    1  A    between atoms: O_1  and  P_2
REMARK    2  A    between atoms: P_2  and  O_3
REMARK    3  A    between atoms: P_2  and  O_5
REMARK    4  A    between atoms: O_5  and  C_6
REMARK    5  A    between atoms: C_6  and  N_7
REMARK    6  A    between atoms: C_11  and  C_14
REMARK    7  A    between atoms: C_11  and  C_20
REMARK                            x       y       z     vdW  Elec       q    Type
REMARK                         _______ _______ _______ _____ _____    ______ ____
ROOT
ATOM      1  N   UNL     1       6.386   0.733   0.947  0.00  0.00    +0.000 N 
ATOM      2  C   UNL     1       7.146   1.852   1.007  0.00  0.00    +0.000 C 
ATOM      3  O   UNL     1       6.763   3.019   1.028  0.00  0.00    +0.000 OA
ATOM      4  N   UNL     1       8.463   1.497   1.096  0.00  0.00    +0.000 N 
ATOM      5  C   UNL     1       8.652   0.064   1.088  0.00  0.00    +0.000 C 
ATOM      6  C   UNL     1       7.157  -0.384   1.057  0.00  0.00    +0.000 C 
ATOM      7  O   UNL     1       6.734  -1.532   1.142  0.00  0.00    +0.000 OA
ATOM      8  H   UNL     1       9.196   2.190   1.122  0.00  0.00    +0.000 HD
ENDROOT
BRANCH   5   9
ATOM      9  C   UNL     1       9.431  -0.351  -0.163  0.00  0.00    +0.000 A 
ATOM     10  C   UNL     1       8.947  -1.335  -1.037  0.00  0.00    +0.000 A 
ATOM     11  C   UNL     1       9.803  -1.947  -1.948  0.00  0.00    +0.000 A 
ATOM     12  C   UNL     1      11.129  -1.536  -2.048  0.00  0.00    +0.000 A 
ATOM     13  C   UNL     1      11.616  -0.527  -1.223  0.00  0.00    +0.000 A 
ATOM     14  C   UNL     1      10.766   0.088  -0.309  0.00  0.00    +0.000 A 
ENDBRANCH   5   9
BRANCH   5  15
ATOM     15  C   UNL     1       9.296  -0.441   2.392  0.00  0.00    +0.000 A 
ATOM     16  C   UNL     1      10.426  -1.286   2.381  0.00  0.00    +0.000 A 
ATOM     17  C   UNL     1      10.906  -1.893   3.530  0.00  0.00    +0.000 A 
ATOM     18  C   UNL     1      10.300  -1.621   4.743  0.00  0.00    +0.000 A 
ATOM     19  C   UNL     1       9.203  -0.761   4.798  0.00  0.00    +0.000 A 
ATOM     20  C   UNL     1       8.706  -0.168   3.636  0.00  0.00    +0.000 A 
ENDBRANCH   5  15
BRANCH   1  21
ATOM     21  C   UNL     1       4.964   0.736   1.009  0.00  0.00    +0.000 C 
BRANCH  21  22
ATOM     22  O   UNL     1       4.426  -0.093  -0.014  0.00  0.00    +0.000 OA
BRANCH  22  23
ATOM     23  P   UNL     1       2.696  -0.093  -0.014  0.00  0.00    +0.000 P 
ATOM     24  O   UNL     1       2.558   1.247   0.696  0.00  0.00    +0.000 OA
BRANCH  23  25
ATOM     25  O   UNL     1       0.966  -0.093  -0.014  0.00  0.00    +0.000 OA
ATOM     26  H   UNL     1       0.655  -0.356   0.872  0.00  0.00    +0.000 HD
ENDBRANCH  23  25
BRANCH  23  27
ATOM     27  O   UNL     1       2.647   0.107  -1.621  0.00  0.00    +0.000 OA
ATOM     28  H   UNL     1       1.726   0.279  -1.890  0.00  0.00    +0.000 HD
ENDBRANCH  23  27
ENDBRANCH  22  23
ENDBRANCH  21  22
ENDBRANCH   1  21
TORSDOF 7
