REMARK  Name = Fostemsavir
REMARK  11 active torsions:
REMARK  status: ('A' for Active; 'I' for Inactive)
REMARK    1  A    between atoms: C_1  and  O_2
REMARK    2  A    between atoms: O_2  and  C_3
REMARK    3  A    between atoms: C_10  and  C_11
REMARK    4  A    between atoms: C_15  and  C_24
REMARK    5  A    between atoms: N_17  and  C_18
REMARK    6  A    between atoms: C_18  and  O_19
REMARK    7  A    between atoms: O_19  and  P_20
REMARK    8  A    between atoms: P_20  and  O_21
REMARK    9  A    between atoms: P_20  and  O_22
REMARK   10  A    between atoms: C_24  and  C_26
REMARK   11  A    between atoms: C_34  and  C_36
REMARK                            x       y       z     vdW  Elec       q    Type
REMARK                         _______ _______ _______ _____ _____    ______ ____
ROOT
ATOM      1  C   UNL     1       3.001  -1.455  -0.149  0.00  0.00    +0.000 A 
ATOM      2  C   UNL     1       2.773  -2.561  -0.938  0.00  0.00    +0.000 A 
ATOM      3  N   UNL     1       3.505  -3.672  -0.922  0.00  0.00    +0.000 NA
ATOM      4  C   UNL     1       4.487  -3.793   0.000  0.00  0.00    +0.000 A 
ATOM      5  N   UNL     1       5.160  -5.033  -0.003  0.00  0.00    +0.000 N 
ATOM      6  C   UNL     1       5.729  -5.663  -1.079  0.00  0.00    +0.000 A 
ATOM      7  N   UNL     1       6.286  -6.792  -0.695  0.00  0.00    +0.000 NA
ATOM      8  C   UNL     1       5.961  -6.863   0.630  0.00  0.00    +0.000 A 
ATOM      9  C   UNL     1       6.330  -8.003   1.496  0.00  0.00    +0.000 C 
ATOM     10  N   UNL     1       5.347  -5.778   1.112  0.00  0.00    +0.000 NA
ATOM     11  C   UNL     1       4.783  -2.702   0.872  0.00  0.00    +0.000 A 
ATOM     12  C   UNL     1       4.083  -1.467   0.781  0.00  0.00    +0.000 A 
ATOM     13  C   UNL     1       4.739  -0.534   1.698  0.00  0.00    +0.000 A 
ATOM     14  C   UNL     1       5.779  -1.242   2.290  0.00  0.00    +0.000 A 
ATOM     15  N   UNL     1       5.769  -2.527   1.842  0.00  0.00    +0.000 N 
ENDROOT
BRANCH   1  17
ATOM     16  C   UNL     1       0.942  -0.275  -0.222  0.00  0.00    +0.000 C 
ATOM     17  O   UNL     1       2.319  -0.361  -0.626  0.00  0.00    +0.000 OA
ENDBRANCH   1  17
BRANCH  13  18
ATOM     18  C   UNL     1       4.499   0.880   2.075  0.00  0.00    +0.000 C 
ATOM     19  O   UNL     1       5.195   1.416   2.942  0.00  0.00    +0.000 OA
BRANCH  18  20
ATOM     20  C   UNL     1       3.362   1.724   1.487  0.00  0.00    +0.000 C 
ATOM     21  O   UNL     1       2.622   1.322   0.616  0.00  0.00    +0.000 OA
ATOM     22  N   UNL     1       3.063   2.975   1.910  0.00  0.00    +0.000 N 
ATOM     23  C   UNL     1       1.698   3.512   1.694  0.00  0.00    +0.000 C 
ATOM     24  C   UNL     1       1.395   4.439   2.870  0.00  0.00    +0.000 C 
ATOM     25  N   UNL     1       2.490   5.427   3.012  0.00  0.00    +0.000 N 
ATOM     26  C   UNL     1       3.841   4.834   3.099  0.00  0.00    +0.000 C 
ATOM     27  C   UNL     1       4.099   3.967   1.888  0.00  0.00    +0.000 C 
ATOM     28  C   UNL     1       2.214   6.789   3.024  0.00  0.00    +0.000 C 
ATOM     29  O   UNL     1       1.074   7.244   3.003  0.00  0.00    +0.000 OA
BRANCH  28  30
ATOM     30  C   UNL     1       3.359   7.738   3.103  0.00  0.00    +0.000 A 
ATOM     31  C   UNL     1       4.363   7.746   2.126  0.00  0.00    +0.000 A 
ATOM     32  C   UNL     1       5.543   8.459   2.349  0.00  0.00    +0.000 A 
ATOM     33  C   UNL     1       5.647   9.302   3.454  0.00  0.00    +0.000 A 
ATOM     34  C   UNL     1       4.567   9.438   4.326  0.00  0.00    +0.000 A 
ATOM     35  C   UNL     1       3.448   8.611   4.190  0.00  0.00    +0.000 A 
ENDBRANCH  28  30
ENDBRANCH  18  20
ENDBRANCH  13  18
BRANCH  15  36
ATOM     36  C   UNL     1       6.781  -3.530   2.157  0.00  0.00    +0.000 C 
BRANCH  36  37
ATOM     37  O   UNL     1       7.770  -3.100   3.076  0.00  0.00    +0.000 OA
BRANCH  37  38
ATOM     38  P   UNL     1       8.919  -4.323   3.497  0.00  0.00    +0.000 P 
ATOM     39  O   UNL     1       9.947  -5.418   3.873  0.00  0.00    +0.000 OA
BRANCH  38  40
ATOM     40  O   UNL     1       9.144  -4.536   1.875  0.00  0.00    +0.000 OA
ATOM     41  H   UNL     1       8.506  -5.044   1.344  0.00  0.00    +0.000 HD
ENDBRANCH  38  40
BRANCH  38  42
ATOM     42  O   UNL     1      10.001  -3.092   3.558  0.00  0.00    +0.000 OA
ATOM     43  H   UNL     1       9.583  -2.220   3.623  0.00  0.00    +0.000 HD
ENDBRANCH  38  42
ENDBRANCH  37  38
ENDBRANCH  36  37
ENDBRANCH  15  36
TORSDOF 9
