REMARK  Name = Framycetin
REMARK  22 active torsions:
REMARK  status: ('A' for Active; 'I' for Inactive)
REMARK    1  A    between atoms: N_1  and  C_2
REMARK    2  A    between atoms: C_2  and  C_3
REMARK    3  A    between atoms: C_5  and  O_6
REMARK    4  A    between atoms: O_6  and  C_7
REMARK    5  A    between atoms: C_8  and  C_9
REMARK    6  A    between atoms: C_9  and  O_10
REMARK    7  A    between atoms: C_12  and  O_13
REMARK    8  A    between atoms: O_13  and  C_14
REMARK    9  A    between atoms: C_15  and  O_16
REMARK   10  A    between atoms: C_17  and  N_18
REMARK   11  A    between atoms: C_20  and  N_21
REMARK   12  A    between atoms: C_22  and  O_23
REMARK   13  A    between atoms: O_23  and  C_24
REMARK   14  A    between atoms: C_26  and  C_27
REMARK   15  A    between atoms: C_27  and  N_28
REMARK   16  A    between atoms: C_29  and  O_30
REMARK   17  A    between atoms: C_31  and  O_32
REMARK   18  A    between atoms: C_33  and  N_34
REMARK   19  A    between atoms: C_35  and  O_36
REMARK   20  A    between atoms: C_37  and  N_38
REMARK   21  A    between atoms: C_39  and  O_40
REMARK   22  A    between atoms: C_41  and  O_42
REMARK                            x       y       z     vdW  Elec       q    Type
REMARK                         _______ _______ _______ _____ _____    ______ ____
ROOT
ATOM      1  C   UNL     1       1.664   4.231   1.490  0.00  0.00    +0.000 C 
ATOM      2  C   UNL     1       1.434   3.628   2.839  0.00  0.00    +0.000 C 
ATOM      3  C   UNL     1       2.387   3.645   4.032  0.00  0.00    +0.000 C 
ATOM      4  C   UNL     1       3.637   2.833   3.503  0.00  0.00    +0.000 C 
ATOM      5  C   UNL     1       3.996   3.375   2.091  0.00  0.00    +0.000 C 
ATOM      6  C   UNL     1       2.816   3.387   0.918  0.00  0.00    +0.000 C 
ENDROOT
BRANCH   3   7
ATOM      7  N   UNL     1       2.320   4.889   4.736  0.00  0.00    +0.000 NA
ATOM      8  H   UNL     1       2.313   5.701   4.144  0.00  0.00    +0.000 HD
ATOM      9  H   UNL     1       3.021   4.914   5.460  0.00  0.00    +0.000 HD
ENDBRANCH   3   7
BRANCH   5  10
ATOM     10  N   UNL     1       4.332   4.763   2.450  0.00  0.00    +0.000 NA
ATOM     11  H   UNL     1       3.458   5.216   2.766  0.00  0.00    +0.000 HD
ATOM     12  H   UNL     1       4.548   5.321   1.636  0.00  0.00    +0.000 HD
ENDBRANCH   5  10
BRANCH   2  13
ATOM     13  O   UNL     1       1.561   2.240   2.843  0.00  0.00    +0.000 OA
ATOM     14  H   UNL     1       2.208   2.144   2.204  0.00  0.00    +0.000 HD
ENDBRANCH   2  13
BRANCH   6  15
ATOM     15  O   UNL     1       2.251   1.963   0.344  0.00  0.00    +0.000 OA
BRANCH  15  16
ATOM     16  C   UNL     1       1.200   1.085   1.066  0.00  0.00    +0.000 C 
ATOM     17  O   UNL     1       0.028   1.878   1.447  0.00  0.00    +0.000 OA
ATOM     18  C   UNL     1      -0.633   1.815   2.889  0.00  0.00    +0.000 C 
ATOM     19  C   UNL     1      -1.164   0.466   3.051  0.00  0.00    +0.000 C 
ATOM     20  C   UNL     1       0.055  -0.472   2.830  0.00  0.00    +0.000 C 
ATOM     21  C   UNL     1       0.759  -0.397   1.359  0.00  0.00    +0.000 C 
BRANCH  21  22
ATOM     22  N   UNL     1      -0.187  -0.787   0.328  0.00  0.00    +0.000 NA
ATOM     23  H   UNL     1      -0.705   0.068   0.114  0.00  0.00    +0.000 HD
ATOM     24  H   UNL     1      -0.879  -1.392   0.773  0.00  0.00    +0.000 HD
ENDBRANCH  21  22
BRANCH  20  25
ATOM     25  O   UNL     1       1.062  -0.357   3.855  0.00  0.00    +0.000 OA
ATOM     26  H   UNL     1       1.605   0.440   3.694  0.00  0.00    +0.000 HD
ENDBRANCH  20  25
BRANCH  19  27
ATOM     27  O   UNL     1      -2.196   0.304   2.078  0.00  0.00    +0.000 OA
ATOM     28  H   UNL     1      -1.967   0.905   1.343  0.00  0.00    +0.000 HD
ENDBRANCH  19  27
BRANCH  18  29
ATOM     29  C   UNL     1      -0.056   2.251   4.501  0.00  0.00    +0.000 C 
BRANCH  29  30
ATOM     30  N   UNL     1      -0.432   2.586   5.889  0.00  0.00    +0.000 NA
ATOM     31  H   UNL     1      -1.411   2.394   6.006  0.00  0.00    +0.000 HD
ATOM     32  H   UNL     1      -0.315   3.615   5.977  0.00  0.00    +0.000 HD
ENDBRANCH  29  30
ENDBRANCH  18  29
ENDBRANCH  15  16
ENDBRANCH   6  15
BRANCH   1  33
ATOM     33  O   UNL     1       1.762   5.614   1.861  0.00  0.00    +0.000 OA
BRANCH  33  37
ATOM     34  C   UNL     1      -1.349   5.282   1.277  0.00  0.00    +0.000 C 
ATOM     35  C   UNL     1      -1.699   5.314   2.782  0.00  0.00    +0.000 C 
ATOM     36  O   UNL     1      -0.369   5.597   3.370  0.00  0.00    +0.000 OA
ATOM     37  C   UNL     1       0.512   6.239   2.340  0.00  0.00    +0.000 C 
ATOM     38  C   UNL     1      -0.384   6.464   1.165  0.00  0.00    +0.000 C 
BRANCH  38  39
ATOM     39  O   UNL     1      -1.032   7.737   1.344  0.00  0.00    +0.000 OA
ATOM     40  H   UNL     1      -1.442   7.749   2.226  0.00  0.00    +0.000 HD
ENDBRANCH  38  39
BRANCH  35  41
ATOM     41  C   UNL     1      -2.627   4.160   3.315  0.00  0.00    +0.000 C 
BRANCH  41  42
ATOM     42  O   UNL     1      -2.240   3.528   4.503  0.00  0.00    +0.000 OA
ATOM     43  H   UNL     1      -2.069   4.182   5.198  0.00  0.00    +0.000 HD
ENDBRANCH  41  42
ENDBRANCH  35  41
BRANCH  34  44
ATOM     44  O   UNL     1      -2.169   5.450   0.161  0.00  0.00    +0.000 OA
BRANCH  44  47
ATOM     45  C   UNL     1      -4.815   5.880   1.039  0.00  0.00    +0.000 C 
ATOM     46  O   UNL     1      -4.135   4.606   0.956  0.00  0.00    +0.000 OA
ATOM     47  C   UNL     1      -3.165   4.498  -0.082  0.00  0.00    +0.000 C 
ATOM     48  C   UNL     1      -3.748   4.830  -1.477  0.00  0.00    +0.000 C 
ATOM     49  C   UNL     1      -4.448   6.199  -1.406  0.00  0.00    +0.000 C 
ATOM     50  C   UNL     1      -5.498   6.183  -0.286  0.00  0.00    +0.000 C 
BRANCH  48  51
ATOM     51  N   UNL     1      -2.740   4.882  -2.569  0.00  0.00    +0.000 NA
ATOM     52  H   UNL     1      -2.073   5.626  -2.331  0.00  0.00    +0.000 HD
ATOM     53  H   UNL     1      -3.223   5.268  -3.390  0.00  0.00    +0.000 HD
ENDBRANCH  48  51
BRANCH  50  54
ATOM     54  O   UNL     1      -6.187   7.429  -0.233  0.00  0.00    +0.000 OA
ATOM     55  H   UNL     1      -5.505   8.103   0.010  0.00  0.00    +0.000 HD
ENDBRANCH  50  54
BRANCH  49  56
ATOM     56  O   UNL     1      -5.042   6.492  -2.674  0.00  0.00    +0.000 OA
ATOM     57  H   UNL     1      -5.799   5.893  -2.772  0.00  0.00    +0.000 HD
ENDBRANCH  49  56
BRANCH  45  58
ATOM     58  C   UNL     1      -3.922   7.071   1.458  0.00  0.00    +0.000 C 
BRANCH  58  59
ATOM     59  N   UNL     1      -4.413   8.438   1.416  0.00  0.00    +0.000 NA
ATOM     60  H   UNL     1      -3.620   9.050   1.636  0.00  0.00    +0.000 HD
ATOM     61  H   UNL     1      -5.092   8.558   2.165  0.00  0.00    +0.000 HD
ENDBRANCH  58  59
ENDBRANCH  45  58
ENDBRANCH  44  47
ENDBRANCH  34  44
ENDBRANCH  33  37
ENDBRANCH   1  33
TORSDOF 22
