REMARK  Name = Frovatriptan
REMARK  3 active torsions:
REMARK  status: ('A' for Active; 'I' for Inactive)
REMARK    1  A    between atoms: C_1  and  N_2
REMARK    2  A    between atoms: N_2  and  C_3
REMARK    3  A    between atoms: C_14  and  C_16
REMARK                            x       y       z     vdW  Elec       q    Type
REMARK                         _______ _______ _______ _____ _____    ______ ____
ROOT
ATOM      1  C   UNL     1       2.878  -0.950   0.961  0.00  0.00    +0.000 C 
ATOM      2  C   UNL     1       4.320  -0.705   1.486  0.00  0.00    +0.000 C 
ATOM      3  C   UNL     1       4.749  -1.760   2.533  0.00  0.00    +0.000 C 
ATOM      4  C   UNL     1       4.145  -3.089   2.239  0.00  0.00    +0.000 A 
ATOM      5  C   UNL     1       3.238  -3.385   1.244  0.00  0.00    +0.000 A 
ATOM      6  C   UNL     1       2.780  -2.346   0.285  0.00  0.00    +0.000 C 
ATOM      7  C   UNL     1       2.863  -4.750   1.380  0.00  0.00    +0.000 A 
ATOM      8  C   UNL     1       3.586  -5.250   2.465  0.00  0.00    +0.000 A 
ATOM      9  N   UNL     1       4.351  -4.221   2.972  0.00  0.00    +0.000 N 
ATOM     10  C   UNL     1       3.485  -6.575   2.889  0.00  0.00    +0.000 A 
ATOM     11  C   UNL     1       2.618  -7.418   2.188  0.00  0.00    +0.000 A 
ATOM     12  C   UNL     1       1.859  -6.957   1.107  0.00  0.00    +0.000 A 
ATOM     13  C   UNL     1       1.978  -5.614   0.697  0.00  0.00    +0.000 A 
ATOM     14  H   UNL     1       4.959  -4.299   3.775  0.00  0.00    +0.000 HD
ENDROOT
BRANCH  12  15
ATOM     15  C   UNL     1       0.918  -7.849   0.363  0.00  0.00    +0.000 C 
ATOM     16  N   UNL     1       0.808  -9.156   0.756  0.00  0.00    +0.000 N 
ATOM     17  O   UNL     1       0.249  -7.439  -0.582  0.00  0.00    +0.000 OA
ATOM     18  H   UNL     1       1.312  -9.581   1.516  0.00  0.00    +0.000 HD
ATOM     19  H   UNL     1       0.166  -9.742   0.239  0.00  0.00    +0.000 HD
ENDBRANCH  12  15
BRANCH   1  21
ATOM     20  C   UNL     1       0.970   0.134  -0.009  0.00  0.00    +0.000 C 
ATOM     21  N   UNL     1       2.433   0.105   0.033  0.00  0.00    +0.000 NA
ATOM     22  H   UNL     1       2.770   1.014   0.347  0.00  0.00    +0.000 HD
ENDBRANCH   1  21
TORSDOF 2
