REMARK  Name = Fructose
REMARK  7 active torsions:
REMARK  status: ('A' for Active; 'I' for Inactive)
REMARK    1  A    between atoms: O_1  and  C_2
REMARK    2  A    between atoms: C_2  and  C_3
REMARK    3  A    between atoms: C_5  and  O_6
REMARK    4  A    between atoms: C_5  and  C_7
REMARK    5  A    between atoms: C_7  and  O_8
REMARK    6  A    between atoms: C_9  and  O_10
REMARK    7  A    between atoms: C_11  and  O_12
REMARK                            x       y       z     vdW  Elec       q    Type
REMARK                         _______ _______ _______ _____ _____    ______ ____
ROOT
ATOM      1  C   UNL     1       2.923  -1.422   0.061  0.00  0.00    +0.000 C 
ATOM      2  O   UNL     1       2.214  -2.514  -0.554  0.00  0.00    +0.000 OA
ATOM      3  C   UNL     1       2.585  -3.723   0.148  0.00  0.00    +0.000 C 
ATOM      4  C   UNL     1       3.559  -3.309   1.273  0.00  0.00    +0.000 C 
ATOM      5  C   UNL     1       3.178  -1.855   1.494  0.00  0.00    +0.000 C 
ENDROOT
BRANCH   3   6
ATOM      6  O   UNL     1       1.414  -4.292   0.736  0.00  0.00    +0.000 OA
ATOM      7  H   UNL     1       0.860  -4.553  -0.020  0.00  0.00    +0.000 HD
ENDBRANCH   3   6
BRANCH   4   8
ATOM      8  O   UNL     1       3.443  -4.089   2.459  0.00  0.00    +0.000 OA
ATOM      9  H   UNL     1       2.486  -4.130   2.656  0.00  0.00    +0.000 HD
ENDBRANCH   4   8
BRANCH   5  10
ATOM     10  O   UNL     1       4.210  -1.088   2.108  0.00  0.00    +0.000 OA
ATOM     11  H   UNL     1       5.038  -1.223   1.618  0.00  0.00    +0.000 HD
ENDBRANCH   5  10
BRANCH   1  12
ATOM     12  C   UNL     1       2.275  -0.033  -0.019  0.00  0.00    +0.000 C 
BRANCH  12  13
ATOM     13  O   UNL     1       0.861  -0.050   0.109  0.00  0.00    +0.000 OA
ATOM     14  H   UNL     1       0.568   0.874   0.039  0.00  0.00    +0.000 HD
ENDBRANCH  12  13
ENDBRANCH   1  12
BRANCH   3  15
ATOM     15  C   UNL     1       3.266  -4.743  -0.792  0.00  0.00    +0.000 C 
BRANCH  15  16
ATOM     16  O   UNL     1       2.388  -5.202  -1.826  0.00  0.00    +0.000 OA
ATOM     17  H   UNL     1       1.747  -5.804  -1.428  0.00  0.00    +0.000 HD
ENDBRANCH  15  16
ENDBRANCH   3  15
TORSDOF 7
