REMARK  Name = Fulvestrant
REMARK  18 active torsions:
REMARK  status: ('A' for Active; 'I' for Inactive)
REMARK    1  A    between atoms: C_5  and  O_6
REMARK    2  A    between atoms: C_7  and  C_8
REMARK    3  A    between atoms: C_16  and  O_17
REMARK    4  A    between atoms: C_21  and  C_22
REMARK    5  A    between atoms: C_22  and  C_23
REMARK    6  A    between atoms: C_23  and  C_24
REMARK    7  A    between atoms: C_24  and  C_25
REMARK    8  A    between atoms: C_25  and  C_26
REMARK    9  A    between atoms: C_26  and  C_27
REMARK   10  A    between atoms: C_27  and  C_28
REMARK   11  A    between atoms: C_28  and  C_29
REMARK   12  A    between atoms: C_29  and  C_30
REMARK   13  A    between atoms: C_30  and  S_31
REMARK   14  A    between atoms: S_31  and  C_33
REMARK   15  A    between atoms: C_33  and  C_34
REMARK   16  A    between atoms: C_34  and  C_35
REMARK   17  A    between atoms: C_35  and  C_36
REMARK   18  A    between atoms: C_36  and  C_39
REMARK                            x       y       z     vdW  Elec       q    Type
REMARK                         _______ _______ _______ _____ _____    ______ ____
ROOT
ATOM      1  C   UNL     1       2.042   0.076  -0.037  0.00  0.00    +0.000 C 
ATOM      2  C   UNL     1       2.499   1.423  -0.596  0.00  0.00    +0.000 C 
ATOM      3  C   UNL     1       2.556   2.334   0.647  0.00  0.00    +0.000 C 
ATOM      4  C   UNL     1       2.378   1.407   1.868  0.00  0.00    +0.000 C 
ATOM      5  C   UNL     1       2.737   0.006   1.335  0.00  0.00    +0.000 C 
ATOM      6  C   UNL     1       4.270  -0.187   1.263  0.00  0.00    +0.000 C 
ATOM      7  C   UNL     1       2.111  -1.150   2.121  0.00  0.00    +0.000 C 
ATOM      8  C   UNL     1       2.274  -2.481   1.374  0.00  0.00    +0.000 C 
ATOM      9  C   UNL     1       1.731  -2.434  -0.071  0.00  0.00    +0.000 C 
ATOM     10  C   UNL     1       1.931  -3.715  -0.876  0.00  0.00    +0.000 A 
ATOM     11  C   UNL     1       1.984  -4.966  -0.245  0.00  0.00    +0.000 A 
ATOM     12  C   UNL     1       2.166  -6.145  -0.971  0.00  0.00    +0.000 A 
ATOM     13  C   UNL     1       2.266  -6.081  -2.355  0.00  0.00    +0.000 A 
ATOM     14  C   UNL     1       2.176  -4.867  -3.011  0.00  0.00    +0.000 A 
ATOM     15  C   UNL     1       2.003  -3.674  -2.287  0.00  0.00    +0.000 A 
ATOM     16  C   UNL     1       1.959  -2.383  -3.067  0.00  0.00    +0.000 C 
ATOM     17  C   UNL     1       1.537  -1.147  -2.249  0.00  0.00    +0.000 C 
ATOM     18  C   UNL     1       2.245  -1.194  -0.873  0.00  0.00    +0.000 C 
ENDROOT
BRANCH   4  19
ATOM     19  O   UNL     1       3.150   1.817   2.979  0.00  0.00    +0.000 OA
ATOM     20  H   UNL     1       4.079   1.888   2.704  0.00  0.00    +0.000 HD
ENDBRANCH   4  19
BRANCH  13  21
ATOM     21  O   UNL     1       2.458  -7.206  -3.101  0.00  0.00    +0.000 OA
ATOM     22  H   UNL     1       2.523  -7.964  -2.501  0.00  0.00    +0.000 HD
ENDBRANCH  13  21
BRANCH  17  23
ATOM     23  C   UNL     1       0.009  -1.035  -2.097  0.00  0.00    +0.000 C 
BRANCH  23  24
ATOM     24  C   UNL     1      -0.723  -0.936  -3.416  0.00  0.00    +0.000 C 
BRANCH  24  25
ATOM     25  C   UNL     1      -2.213  -0.865  -3.150  0.00  0.00    +0.000 C 
BRANCH  25  26
ATOM     26  C   UNL     1      -2.934  -0.823  -4.480  0.00  0.00    +0.000 C 
BRANCH  26  27
ATOM     27  C   UNL     1      -4.428  -0.756  -4.248  0.00  0.00    +0.000 C 
BRANCH  27  28
ATOM     28  C   UNL     1      -5.151  -0.697  -5.580  0.00  0.00    +0.000 C 
BRANCH  28  29
ATOM     29  C   UNL     1      -6.655  -0.619  -5.353  0.00  0.00    +0.000 C 
BRANCH  29  30
ATOM     30  C   UNL     1      -7.377  -0.555  -6.688  0.00  0.00    +0.000 C 
BRANCH  30  31
ATOM     31  C   UNL     1      -8.894  -0.474  -6.528  0.00  0.00    +0.000 C 
BRANCH  31  32
ATOM     32  S   UNL     1      -9.606  -0.378  -8.200  0.00  0.00    +0.000 S 
ATOM     33  O   UNL     1      -9.359  -1.700  -8.865  0.00  0.00    +0.000 OA
BRANCH  32  34
ATOM     34  C   UNL     1     -11.374  -0.314  -7.773  0.00  0.00    +0.000 C 
BRANCH  34  35
ATOM     35  C   UNL     1     -12.157  -0.250  -9.088  0.00  0.00    +0.000 C 
BRANCH  35  36
ATOM     36  C   UNL     1     -13.666  -0.174  -8.881  0.00  0.00    +0.000 C 
BRANCH  36  37
ATOM     37  C   UNL     1     -14.405  -0.109 -10.220  0.00  0.00    +0.000 C 
ATOM     38  F   UNL     1     -13.958   0.973 -10.917  0.00  0.00    +0.000 F 
ATOM     39  F   UNL     1     -14.077  -1.203 -10.962  0.00  0.00    +0.000 F 
BRANCH  37  40
ATOM     40  C   UNL     1     -15.917  -0.029 -10.020  0.00  0.00    +0.000 C 
ATOM     41  F   UNL     1     -16.384  -1.105  -9.338  0.00  0.00    +0.000 F 
ATOM     42  F   UNL     1     -16.261   1.068  -9.299  0.00  0.00    +0.000 F 
ATOM     43  F   UNL     1     -16.592   0.031 -11.191  0.00  0.00    +0.000 F 
ENDBRANCH  37  40
ENDBRANCH  36  37
ENDBRANCH  35  36
ENDBRANCH  34  35
ENDBRANCH  32  34
ENDBRANCH  31  32
ENDBRANCH  30  31
ENDBRANCH  29  30
ENDBRANCH  28  29
ENDBRANCH  27  28
ENDBRANCH  26  27
ENDBRANCH  25  26
ENDBRANCH  24  25
ENDBRANCH  23  24
ENDBRANCH  17  23
TORSDOF 17
