REMARK  Name = Furosemide
REMARK  7 active torsions:
REMARK  status: ('A' for Active; 'I' for Inactive)
REMARK    1  A    between atoms: N_1  and  S_2
REMARK    2  A    between atoms: S_2  and  C_5
REMARK    3  A    between atoms: C_9  and  N_10
REMARK    4  A    between atoms: N_10  and  C_11
REMARK    5  A    between atoms: C_11  and  C_12
REMARK    6  A    between atoms: C_17  and  C_19
REMARK    7  A    between atoms: C_19  and  O_20
REMARK                            x       y       z     vdW  Elec       q    Type
REMARK                         _______ _______ _______ _____ _____    ______ ____
ROOT
ATOM      1  C   UNL     1       3.335  -1.632   0.224  0.00  0.00    +0.000 A 
ATOM      2  C   UNL     1       2.499  -2.710   0.035  0.00  0.00    +0.000 A 
ATOM      3 CL   UNL     1       0.825  -2.639  -0.368  0.00  0.00    +0.000 Cl
ATOM      4  C   UNL     1       3.026  -4.004   0.169  0.00  0.00    +0.000 A 
ATOM      5  C   UNL     1       4.382  -4.302   0.498  0.00  0.00    +0.000 A 
ATOM      6  C   UNL     1       5.259  -3.183   0.708  0.00  0.00    +0.000 A 
ATOM      7  C   UNL     1       4.682  -1.880   0.556  0.00  0.00    +0.000 A 
ENDROOT
BRANCH   1   8
ATOM      8  S   UNL     1       2.854   0.071   0.089  0.00  0.00    +0.000 S 
ATOM      9  O   UNL     1       3.243   0.529  -1.225  0.00  0.00    +0.000 OA
ATOM     10  O   UNL     1       3.289   0.742   1.292  0.00  0.00    +0.000 OA
BRANCH   8  11
ATOM     11  N   UNL     1       1.187   0.144   0.148  0.00  0.00    +0.000 NA
ATOM     12  H   UNL     1       0.825   1.069  -0.082  0.00  0.00    +0.000 HD
ATOM     13  H   UNL     1       0.773  -0.283   0.973  0.00  0.00    +0.000 HD
ENDBRANCH   8  11
ENDBRANCH   1   8
BRANCH   5  14
ATOM     14  N   UNL     1       4.605  -5.684   0.550  0.00  0.00    +0.000 N 
ATOM     15  H   UNL     1       3.858  -6.353   0.378  0.00  0.00    +0.000 HD
BRANCH  14  16
ATOM     16  C   UNL     1       5.867  -6.244   0.860  0.00  0.00    +0.000 C 
BRANCH  16  17
ATOM     17  C   UNL     1       6.273  -7.639   0.949  0.00  0.00    +0.000 A 
ATOM     18  C   UNL     1       7.535  -8.141   1.204  0.00  0.00    +0.000 A 
ATOM     19  C   UNL     1       7.387  -9.537   1.183  0.00  0.00    +0.000 A 
ATOM     20  C   UNL     1       6.055  -9.776   0.928  0.00  0.00    +0.000 A 
ATOM     21  O   UNL     1       5.363  -8.616   0.787  0.00  0.00    +0.000 OA
ENDBRANCH  16  17
ENDBRANCH  14  16
ENDBRANCH   5  14
BRANCH   6  22
ATOM     22  C   UNL     1       6.754  -2.992   1.079  0.00  0.00    +0.000 C 
ATOM     23  O   UNL     1       7.240  -1.882   1.183  0.00  0.00    +0.000 OA
BRANCH  22  24
ATOM     24  O   UNL     1       7.600  -3.999   1.316  0.00  0.00    +0.000 OA
ATOM     25  H   UNL     1       7.244  -4.859   1.203  0.00  0.00    +0.000 HD
ENDBRANCH  22  24
ENDBRANCH   6  22
TORSDOF 7
