REMARK  Name = Fursultiamine
REMARK  13 active torsions:
REMARK  status: ('A' for Active; 'I' for Inactive)
REMARK    1  A    between atoms: C_1  and  C_2
REMARK    2  A    between atoms: C_2  and  N_3
REMARK    3  A    between atoms: N_3  and  C_4
REMARK    4  A    between atoms: C_4  and  C_5
REMARK    5  A    between atoms: C_6  and  N_7
REMARK    6  A    between atoms: C_9  and  C_10
REMARK    7  A    between atoms: C_15  and  C_16
REMARK    8  A    between atoms: C_15  and  S_19
REMARK    9  A    between atoms: C_16  and  C_17
REMARK   10  A    between atoms: C_17  and  O_18
REMARK   11  A    between atoms: S_19  and  S_20
REMARK   12  A    between atoms: S_20  and  C_21
REMARK   13  A    between atoms: C_21  and  C_22
REMARK                            x       y       z     vdW  Elec       q    Type
REMARK                         _______ _______ _______ _____ _____    ______ ____
ROOT
ATOM      1  C   UNL     1       0.699  -0.097   0.040  0.00  0.00    +0.000 C 
ATOM      2  C   UNL     1       2.151  -0.103   0.081  0.00  0.00    +0.000 C 
ATOM      3  C   UNL     1       2.788   0.352  -0.987  0.00  0.00    +0.000 C 
ENDROOT
BRANCH   2   4
ATOM      4  N   UNL     1       2.861  -0.692   1.074  0.00  0.00    +0.000 N 
ATOM      5  C   UNL     1       2.393  -1.727   1.922  0.00  0.00    +0.000 C 
ATOM      6  O   UNL     1       3.079  -2.427   2.665  0.00  0.00    +0.000 OA
BRANCH   4   7
ATOM      7  C   UNL     1       4.241  -0.290   1.305  0.00  0.00    +0.000 C 
BRANCH   7   8
ATOM      8  C   UNL     1       5.475   0.800   0.165  0.00  0.00    +0.000 A 
ATOM      9  C   UNL     1       6.321   0.182  -1.380  0.00  0.00    +0.000 A 
ATOM     10  N   UNL     1       6.624   0.919  -2.342  0.00  0.00    +0.000 NA
ATOM     11  C   UNL     1       6.226   2.132  -1.991  0.00  0.00    +0.000 A 
ATOM     12  C   UNL     1       6.353   2.943  -3.173  0.00  0.00    +0.000 C 
ATOM     13  N   UNL     1       5.608   2.767  -0.827  0.00  0.00    +0.000 NA
ATOM     14  C   UNL     1       5.233   2.067   0.260  0.00  0.00    +0.000 A 
BRANCH   9  15
ATOM     15  N   UNL     1       6.303  -1.348  -1.945  0.00  0.00    +0.000 N 
ATOM     16  H   UNL     1       6.402  -2.180  -1.330  0.00  0.00    +0.000 HD
ATOM     17  H   UNL     1       6.707  -1.627  -2.824  0.00  0.00    +0.000 HD
ENDBRANCH   9  15
ENDBRANCH   7   8
ENDBRANCH   4   7
ENDBRANCH   2   4
BRANCH   3  18
ATOM     18  C   UNL     1       4.170  -0.287  -1.207  0.00  0.00    +0.000 C 
BRANCH  18  19
ATOM     19  C   UNL     1       5.579  -1.271   0.015  0.00  0.00    +0.000 C 
BRANCH  19  20
ATOM     20  O   UNL     1       7.159  -1.229   0.202  0.00  0.00    +0.000 OA
ATOM     21  H   UNL     1       7.677  -0.789  -0.498  0.00  0.00    +0.000 HD
ENDBRANCH  19  20
ENDBRANCH  18  19
ENDBRANCH   3  18
BRANCH   3  22
ATOM     22  S   UNL     1       1.919   1.602  -2.068  0.00  0.00    +0.000 S 
BRANCH  22  23
ATOM     23  S   UNL     1       3.282   2.451  -3.307  0.00  0.00    +0.000 S 
BRANCH  23  24
ATOM     24  C   UNL     1       2.649   3.791  -4.435  0.00  0.00    +0.000 C 
BRANCH  24  25
ATOM     25  C   UNL     1       3.724   4.537  -5.320  0.00  0.00    +0.000 C 
ATOM     26  C   UNL     1       4.189   3.735  -6.528  0.00  0.00    +0.000 C 
ATOM     27  C   UNL     1       5.596   4.221  -6.788  0.00  0.00    +0.000 C 
ATOM     28  C   UNL     1       6.072   4.641  -5.440  0.00  0.00    +0.000 C 
ATOM     29  O   UNL     1       4.919   4.981  -4.649  0.00  0.00    +0.000 OA
ENDBRANCH  24  25
ENDBRANCH  23  24
ENDBRANCH  22  23
ENDBRANCH   3  22
TORSDOF 11
