REMARK  Name = Fusafungine
REMARK  21 active torsions:
REMARK  status: ('A' for Active; 'I' for Inactive)
REMARK    1  A    between atoms: C_2  and  C_49
REMARK    2  A    between atoms: C_6  and  C_8
REMARK    3  A    between atoms: C_8  and  C_9
REMARK    4  A    between atoms: C_8  and  C_10
REMARK    5  A    between atoms: N_11  and  C_12
REMARK    6  A    between atoms: C_15  and  C_46
REMARK    7  A    between atoms: C_20  and  C_22
REMARK    8  A    between atoms: C_22  and  C_23
REMARK    9  A    between atoms: C_22  and  C_24
REMARK   10  A    between atoms: N_25  and  C_26
REMARK   11  A    between atoms: C_29  and  C_43
REMARK   12  A    between atoms: C_34  and  C_36
REMARK   13  A    between atoms: C_36  and  C_37
REMARK   14  A    between atoms: C_36  and  C_38
REMARK   15  A    between atoms: N_39  and  C_40
REMARK   16  A    between atoms: C_43  and  C_44
REMARK   17  A    between atoms: C_43  and  C_45
REMARK   18  A    between atoms: C_46  and  C_47
REMARK   19  A    between atoms: C_46  and  C_48
REMARK   20  A    between atoms: C_49  and  C_50
REMARK   21  A    between atoms: C_49  and  C_51
REMARK                            x       y       z     vdW  Elec       q    Type
REMARK                         _______ _______ _______ _____ _____    ______ ____
ROOT
ATOM      1  C   UNL     1       1.637  -0.239   0.169  0.00  0.00    +0.000 C 
ATOM      2  O   UNL     1       2.378  -1.354  -0.583  0.00  0.00    +0.000 OA
ATOM      3  C   UNL     1       2.709  -2.597  -0.048  0.00  0.00    +0.000 C 
ATOM      4  O   UNL     1       1.870  -3.320   0.498  0.00  0.00    +0.000 OA
ATOM      5  C   UNL     1       4.282  -3.028  -0.272  0.00  0.00    +0.000 C 
ATOM      6  N   UNL     1       5.101  -3.856   0.781  0.00  0.00    +0.000 N 
ATOM      7  C   UNL     1       4.406  -4.684   1.777  0.00  0.00    +0.000 C 
ATOM      8  C   UNL     1       6.522  -3.717   0.895  0.00  0.00    +0.000 C 
ATOM      9  O   UNL     1       7.295  -3.937  -0.039  0.00  0.00    +0.000 OA
ATOM     10  C   UNL     1       7.125  -3.117   2.218  0.00  0.00    +0.000 C 
ATOM     11  O   UNL     1       8.407  -2.448   1.737  0.00  0.00    +0.000 OA
ATOM     12  C   UNL     1       9.196  -1.502   2.344  0.00  0.00    +0.000 C 
ATOM     13  O   UNL     1       9.721  -1.712   3.464  0.00  0.00    +0.000 OA
ATOM     14  C   UNL     1       9.232  -0.062   1.519  0.00  0.00    +0.000 C 
ATOM     15  N   UNL     1       9.399   1.417   2.220  0.00  0.00    +0.000 N 
ATOM     16  C   UNL     1       9.734   1.421   3.664  0.00  0.00    +0.000 C 
ATOM     17  C   UNL     1       8.786   2.697   1.790  0.00  0.00    +0.000 C 
ATOM     18  O   UNL     1       9.526   3.665   1.587  0.00  0.00    +0.000 OA
ATOM     19  C   UNL     1       7.156   2.983   1.723  0.00  0.00    +0.000 C 
ATOM     20  O   UNL     1       6.457   3.790   0.721  0.00  0.00    +0.000 OA
ATOM     21  C   UNL     1       5.059   3.940   0.781  0.00  0.00    +0.000 C 
ATOM     22  O   UNL     1       4.540   4.615   1.670  0.00  0.00    +0.000 OA
ATOM     23  C   UNL     1       4.156   2.962  -0.339  0.00  0.00    +0.000 C 
ATOM     24  N   UNL     1       2.679   2.299   0.100  0.00  0.00    +0.000 N 
ATOM     25  C   UNL     1       2.086   2.856   1.347  0.00  0.00    +0.000 C 
ATOM     26  C   UNL     1       2.048   1.147  -0.575  0.00  0.00    +0.000 C 
ATOM     27  O   UNL     1       1.933   1.042  -1.800  0.00  0.00    +0.000 OA
ENDROOT
BRANCH   5  28
ATOM     28  C   UNL     1       4.219  -3.650  -1.652  0.00  0.00    +0.000 C 
ATOM     29  C   UNL     1       3.695  -2.628  -2.675  0.00  0.00    +0.000 C 
ATOM     30  C   UNL     1       5.587  -4.091  -2.097  0.00  0.00    +0.000 C 
ENDBRANCH   5  28
BRANCH  14  31
ATOM     31  C   UNL     1       9.835  -0.108   0.119  0.00  0.00    +0.000 C 
ATOM     32  C   UNL     1       9.231  -1.292  -0.656  0.00  0.00    +0.000 C 
ATOM     33  C   UNL     1       9.459   1.146  -0.685  0.00  0.00    +0.000 C 
ENDBRANCH  14  31
BRANCH  23  34
ATOM     34  C   UNL     1       4.310   3.542  -1.721  0.00  0.00    +0.000 C 
ATOM     35  C   UNL     1       5.795   3.736  -2.039  0.00  0.00    +0.000 C 
ATOM     36  C   UNL     1       3.783   2.559  -2.734  0.00  0.00    +0.000 C 
ENDBRANCH  23  34
BRANCH  19  37
ATOM     37  C   UNL     1       6.644   1.678   1.423  0.00  0.00    +0.000 C 
ATOM     38  C   UNL     1       6.892   0.805   2.558  0.00  0.00    +0.000 C 
ATOM     39  C   UNL     1       5.232   1.482   1.611  0.00  0.00    +0.000 C 
ENDBRANCH  19  37
BRANCH  10  40
ATOM     40  C   UNL     1       6.212  -2.030   2.709  0.00  0.00    +0.000 C 
ATOM     41  C   UNL     1       4.796  -2.226   3.137  0.00  0.00    +0.000 C 
ATOM     42  C   UNL     1       6.726  -1.388   3.995  0.00  0.00    +0.000 C 
ENDBRANCH  10  40
BRANCH   1  43
ATOM     43  C   UNL     1       2.185  -0.280   1.544  0.00  0.00    +0.000 C 
ATOM     44  C   UNL     1       1.799  -1.341   2.512  0.00  0.00    +0.000 C 
ATOM     45  C   UNL     1       3.607  -0.343   1.247  0.00  0.00    +0.000 C 
ENDBRANCH   1  43
TORSDOF 6
