REMARK  Name = Fusidic acid
REMARK  16 active torsions:
REMARK  status: ('A' for Active; 'I' for Inactive)
REMARK    1  A    between atoms: C_4  and  O_5
REMARK    2  A    between atoms: C_8  and  C_9
REMARK    3  A    between atoms: C_12  and  O_13
REMARK    4  A    between atoms: C_14  and  C_15
REMARK    5  A    between atoms: C_20  and  C_21
REMARK    6  A    between atoms: C_22  and  C_23
REMARK    7  A    between atoms: C_25  and  O_26
REMARK    8  A    between atoms: O_26  and  C_27
REMARK    9  A    between atoms: C_27  and  C_28
REMARK   10  A    between atoms: C_31  and  C_32
REMARK   11  A    between atoms: C_31  and  C_38
REMARK   12  A    between atoms: C_32  and  C_33
REMARK   13  A    between atoms: C_33  and  C_34
REMARK   14  A    between atoms: C_35  and  C_36
REMARK   15  A    between atoms: C_35  and  C_37
REMARK   16  A    between atoms: C_38  and  O_39
REMARK                            x       y       z     vdW  Elec       q    Type
REMARK                         _______ _______ _______ _____ _____    ______ ____
ROOT
ATOM      1  C   UNL     1       2.804  -0.494  -0.642  0.00  0.00    +0.000 C 
ATOM      2  C   UNL     1       2.408   0.291   1.175  0.00  0.00    +0.000 C 
ATOM      3  C   UNL     1       2.269   2.174   1.007  0.00  0.00    +0.000 C 
ATOM      4  C   UNL     1       3.873   2.943  -0.334  0.00  0.00    +0.000 C 
ATOM      5  C   UNL     1       2.755   4.365  -1.313  0.00  0.00    +0.000 C 
ATOM      6  C   UNL     1       0.532   4.307  -0.937  0.00  0.00    +0.000 C 
ATOM      7  C   UNL     1       3.344   5.756  -0.376  0.00  0.00    +0.000 C 
ATOM      8  C   UNL     1       4.028   5.540  -1.520  0.00  0.00    +0.000 C 
ATOM      9  C   UNL     1       5.101   6.328  -1.878  0.00  0.00    +0.000 C 
ATOM     10  C   UNL     1       5.822   5.146  -2.317  0.00  0.00    +0.000 C 
ATOM     11  C   UNL     1       7.010   4.842  -1.288  0.00  0.00    +0.000 C 
ATOM     12  C   UNL     1       4.307   4.021  -2.741  0.00  0.00    +0.000 C 
ATOM     13  C   UNL     1       5.996   3.674  -3.503  0.00  0.00    +0.000 C 
ATOM     14  C   UNL     1       5.876   2.315  -3.633  0.00  0.00    +0.000 C 
ATOM     15  C   UNL     1       5.293   1.704  -1.789  0.00  0.00    +0.000 C 
ATOM     16  C   UNL     1       7.130   0.996  -2.360  0.00  0.00    +0.000 C 
ATOM     17  C   UNL     1       4.387  -0.215  -2.053  0.00  0.00    +0.000 C 
ATOM     18  C   UNL     1       4.889  -1.280  -3.883  0.00  0.00    +0.000 C 
ATOM     19  C   UNL     1       5.014  -1.473  -1.700  0.00  0.00    +0.000 C 
ATOM     20  C   UNL     1       3.575  -1.611  -1.639  0.00  0.00    +0.000 C 
ATOM     21  C   UNL     1       3.747  -1.276  -0.049  0.00  0.00    +0.000 C 
ATOM     22  C   UNL     1       4.680  -0.382   0.487  0.00  0.00    +0.000 C 
ENDROOT
BRANCH   3  23
ATOM     23  O   UNL     1       1.495   1.969   2.501  0.00  0.00    +0.000 OA
ATOM     24  H   UNL     1       1.181   2.680   3.091  0.00  0.00    +0.000 HD
ENDBRANCH   3  23
BRANCH   9  25
ATOM     25  O   UNL     1       5.485   6.867  -0.659  0.00  0.00    +0.000 OA
ATOM     26  H   UNL     1       5.573   6.110  -0.028  0.00  0.00    +0.000 HD
ENDBRANCH   9  25
BRANCH  22  27
ATOM     27  C   UNL     1       6.141  -0.624   0.417  0.00  0.00    +0.000 C 
ATOM     28  O   UNL     1       6.947   0.110  -0.127  0.00  0.00    +0.000 OA
BRANCH  27  29
ATOM     29  O   UNL     1       6.288  -1.944   0.537  0.00  0.00    +0.000 OA
ATOM     30  H   UNL     1       5.482  -2.332   0.929  0.00  0.00    +0.000 HD
ENDBRANCH  27  29
ENDBRANCH  22  27
BRANCH  20  31
ATOM     31  O   UNL     1       2.666  -0.519  -2.839  0.00  0.00    +0.000 OA
BRANCH  31  32
ATOM     32  C   UNL     1       3.264   0.446  -3.804  0.00  0.00    +0.000 C 
ATOM     33  C   UNL     1       4.769   0.636  -3.764  0.00  0.00    +0.000 C 
ATOM     34  O   UNL     1       2.698   1.359  -4.406  0.00  0.00    +0.000 OA
ENDBRANCH  31  32
ENDBRANCH  20  31
BRANCH  22  35
ATOM     35  C   UNL     1       4.510   0.953  -0.054  0.00  0.00    +0.000 C 
BRANCH  35  36
ATOM     36  C   UNL     1       3.129   1.392  -0.269  0.00  0.00    +0.000 C 
BRANCH  36  37
ATOM     37  C   UNL     1       1.981   2.744  -0.799  0.00  0.00    +0.000 C 
ATOM     38  C   UNL     1       1.732   3.990   0.388  0.00  0.00    +0.000 C 
ATOM     39  C   UNL     1       0.182   3.341   1.286  0.00  0.00    +0.000 C 
ATOM     40  C   UNL     1       1.390   5.836  -0.433  0.00  0.00    +0.000 C 
ENDBRANCH  36  37
ENDBRANCH  35  36
ENDBRANCH  22  35
TORSDOF 9
