REMARK  Name = Futibatinib
REMARK  8 active torsions:
REMARK  status: ('A' for Active; 'I' for Inactive)
REMARK    1  A    between atoms: C_1  and  O_2
REMARK    2  A    between atoms: O_2  and  C_3
REMARK    3  A    between atoms: C_5  and  C_11
REMARK    4  A    between atoms: C_7  and  O_8
REMARK    5  A    between atoms: O_8  and  C_9
REMARK    6  A    between atoms: C_12  and  C_13
REMARK    7  A    between atoms: N_15  and  C_16
REMARK    8  A    between atoms: C_21  and  C_23
REMARK                            x       y       z     vdW  Elec       q    Type
REMARK                         _______ _______ _______ _____ _____    ______ ____
ROOT
ATOM      1  C   UNL     1      10.345  -0.703  -3.832  0.00  0.00    +0.000 A 
ATOM      2  N   UNL     1      10.851   0.539  -3.617  0.00  0.00    +0.000 NA
ATOM      3  N   UNL     1      10.772   1.154  -4.861  0.00  0.00    +0.000 N 
ATOM      4  C   UNL     1      10.183   0.328  -5.793  0.00  0.00    +0.000 A 
ATOM      5  C   UNL     1       9.935  -0.877  -5.178  0.00  0.00    +0.000 A 
ATOM      6  C   UNL     1       9.362  -1.868  -5.977  0.00  0.00    +0.000 A 
ATOM      7  N   UNL     1       9.015  -3.103  -5.497  0.00  0.00    +0.000 N 
ATOM      8  N   UNL     1       9.136  -1.618  -7.287  0.00  0.00    +0.000 NA
ATOM      9  C   UNL     1       9.425  -0.400  -7.764  0.00  0.00    +0.000 A 
ATOM     10  N   UNL     1       9.901   0.629  -7.069  0.00  0.00    +0.000 NA
ATOM     11  H   UNL     1       9.166  -3.342  -4.532  0.00  0.00    +0.000 HD
ATOM     12  H   UNL     1       8.605  -3.759  -6.142  0.00  0.00    +0.000 HD
ENDROOT
BRANCH   3  13
ATOM     13  C   UNL     1      11.128   2.564  -5.103  0.00  0.00    +0.000 C 
ATOM     14  C   UNL     1      12.528   3.023  -4.649  0.00  0.00    +0.000 C 
ATOM     15  C   UNL     1      12.858   4.227  -5.546  0.00  0.00    +0.000 C 
ATOM     16  N   UNL     1      12.294   3.870  -6.824  0.00  0.00    +0.000 N 
ATOM     17  C   UNL     1      11.151   2.994  -6.609  0.00  0.00    +0.000 C 
ATOM     18  C   UNL     1      12.795   4.051  -8.106  0.00  0.00    +0.000 C 
ATOM     19  O   UNL     1      12.257   3.559  -9.099  0.00  0.00    +0.000 OA
BRANCH  18  20
ATOM     20  C   UNL     1      14.039   4.863  -8.267  0.00  0.00    +0.000 C 
ATOM     21  C   UNL     1      14.580   5.092  -9.475  0.00  0.00    +0.000 C 
ENDBRANCH  18  20
ENDBRANCH   3  13
BRANCH   1  23
ATOM     22  C   UNL     1      10.078  -2.655  -2.007  0.00  0.00    +0.000 C 
ATOM     23  C   UNL     1      10.230  -1.720  -2.780  0.00  0.00    +0.000 C 
BRANCH  22  26
ATOM     24  C   UNL     1      10.757  -5.020   0.879  0.00  0.00    +0.000 A 
ATOM     25  C   UNL     1      10.864  -3.963  -0.046  0.00  0.00    +0.000 A 
ATOM     26  C   UNL     1       9.926  -3.782  -1.075  0.00  0.00    +0.000 A 
ATOM     27  C   UNL     1       8.864  -4.709  -1.143  0.00  0.00    +0.000 A 
ATOM     28  C   UNL     1       8.732  -5.762  -0.198  0.00  0.00    +0.000 A 
ATOM     29  C   UNL     1       9.680  -5.903   0.817  0.00  0.00    +0.000 A 
BRANCH  24  31
ATOM     30  C   UNL     1      12.207  -6.356   2.194  0.00  0.00    +0.000 C 
ATOM     31  O   UNL     1      11.698  -5.059   1.877  0.00  0.00    +0.000 OA
ENDBRANCH  24  31
BRANCH  28  32
ATOM     32  O   UNL     1       7.640  -6.587  -0.347  0.00  0.00    +0.000 OA
ATOM     33  C   UNL     1       7.480  -7.647   0.603  0.00  0.00    +0.000 C 
ENDBRANCH  28  32
ENDBRANCH  22  26
ENDBRANCH   1  23
TORSDOF 6
