REMARK  Name = Gabapentin
REMARK  5 active torsions:
REMARK  status: ('A' for Active; 'I' for Inactive)
REMARK    1  A    between atoms: N_1  and  C_2
REMARK    2  A    between atoms: C_2  and  C_3
REMARK    3  A    between atoms: C_3  and  C_4
REMARK    4  A    between atoms: C_4  and  C_5
REMARK    5  A    between atoms: C_5  and  O_6
REMARK                            x       y       z     vdW  Elec       q    Type
REMARK                         _______ _______ _______ _____ _____    ______ ____
ROOT
ATOM      1  C   UNL     1       3.008  -0.431  -1.372  0.00  0.00    +0.000 C 
ATOM      2  C   UNL     1       4.413   0.217  -1.553  0.00  0.00    +0.000 C 
ATOM      3  C   UNL     1       5.172  -0.284  -2.772  0.00  0.00    +0.000 C 
ATOM      4  C   UNL     1       5.157  -1.850  -2.856  0.00  0.00    +0.000 C 
ATOM      5  C   UNL     1       3.837  -2.609  -2.476  0.00  0.00    +0.000 C 
ATOM      6  C   UNL     1       3.159  -1.976  -1.276  0.00  0.00    +0.000 C 
ENDROOT
BRANCH   1   7
ATOM      7  C   UNL     1       2.476   0.039   0.048  0.00  0.00    +0.000 C 
BRANCH   7   8
ATOM      8  N   UNL     1       1.023   0.001   0.162  0.00  0.00    +0.000 NA
ATOM      9  H   UNL     1       0.720   0.280   1.093  0.00  0.00    +0.000 HD
ATOM     10  H   UNL     1       0.664  -0.937  -0.003  0.00  0.00    +0.000 HD
ENDBRANCH   7   8
ENDBRANCH   1   7
BRANCH   1  11
ATOM     11  C   UNL     1       1.972   0.058  -2.478  0.00  0.00    +0.000 C 
BRANCH  11  12
ATOM     12  C   UNL     1       1.989  -0.107  -4.015  0.00  0.00    +0.000 C 
ATOM     13  O   UNL     1       1.141   0.340  -4.750  0.00  0.00    +0.000 OA
BRANCH  12  14
ATOM     14  O   UNL     1       2.984  -0.812  -4.550  0.00  0.00    +0.000 OA
ATOM     15  H   UNL     1       3.520  -1.046  -3.802  0.00  0.00    +0.000 HD
ENDBRANCH  12  14
ENDBRANCH  11  12
ENDBRANCH   1  11
TORSDOF 5
