REMARK  Name = Gabapentin enacarbil
REMARK  13 active torsions:
REMARK  status: ('A' for Active; 'I' for Inactive)
REMARK    1  A    between atoms: C_1  and  C_2
REMARK    2  A    between atoms: C_2  and  C_3
REMARK    3  A    between atoms: C_2  and  C_4
REMARK    4  A    between atoms: C_4  and  O_6
REMARK    5  A    between atoms: O_6  and  C_7
REMARK    6  A    between atoms: C_7  and  C_8
REMARK    7  A    between atoms: C_7  and  O_9
REMARK    8  A    between atoms: O_9  and  C_10
REMARK    9  A    between atoms: N_12  and  C_13
REMARK   10  A    between atoms: C_13  and  C_14
REMARK   11  A    between atoms: C_14  and  C_15
REMARK   12  A    between atoms: C_15  and  C_16
REMARK   13  A    between atoms: C_16  and  O_17
REMARK                            x       y       z     vdW  Elec       q    Type
REMARK                         _______ _______ _______ _____ _____    ______ ____
ROOT
ATOM      1  C   UNL     1       6.960  -1.578  -4.083  0.00  0.00    +0.000 C 
ATOM      2  O   UNL     1       6.353  -2.017  -5.042  0.00  0.00    +0.000 OA
ATOM      3  N   UNL     1       8.336  -1.543  -4.024  0.00  0.00    +0.000 N 
ATOM      4  H   UNL     1       8.716  -1.231  -3.145  0.00  0.00    +0.000 HD
ENDROOT
BRANCH   1   5
ATOM      5  O   UNL     1       6.379  -1.058  -2.948  0.00  0.00    +0.000 OA
BRANCH   5   6
ATOM      6  C   UNL     1       4.905  -1.024  -2.922  0.00  0.00    +0.000 C 
ATOM      7  C   UNL     1       4.396  -0.105  -4.040  0.00  0.00    +0.000 C 
BRANCH   6   8
ATOM      8  O   UNL     1       4.404  -0.517  -1.631  0.00  0.00    +0.000 OA
BRANCH   8   9
ATOM      9  C   UNL     1       3.040  -0.541  -1.461  0.00  0.00    +0.000 C 
ATOM     10  O   UNL     1       2.253  -0.961  -2.302  0.00  0.00    +0.000 OA
BRANCH   9  12
ATOM     11  C   UNL     1       1.029   0.080  -0.077  0.00  0.00    +0.000 C 
ATOM     12  C   UNL     1       2.569   0.030  -0.119  0.00  0.00    +0.000 C 
ATOM     13  C   UNL     1       3.056  -0.832   1.037  0.00  0.00    +0.000 C 
ENDBRANCH   9  12
ENDBRANCH   8   9
ENDBRANCH   6   8
ENDBRANCH   5   6
ENDBRANCH   1   5
BRANCH   3  14
ATOM     14  C   UNL     1       9.206  -1.928  -5.159  0.00  0.00    +0.000 C 
BRANCH  14  15
ATOM     15  C   UNL     1      10.778  -1.827  -4.894  0.00  0.00    +0.000 C 
ATOM     16  C   UNL     1      11.027  -0.480  -4.168  0.00  0.00    +0.000 C 
ATOM     17  C   UNL     1      12.411  -0.313  -3.582  0.00  0.00    +0.000 C 
ATOM     18  C   UNL     1      12.861  -1.598  -2.804  0.00  0.00    +0.000 C 
ATOM     19  C   UNL     1      12.529  -3.003  -3.413  0.00  0.00    +0.000 C 
ATOM     20  C   UNL     1      11.127  -3.039  -3.990  0.00  0.00    +0.000 C 
BRANCH  15  21
ATOM     21  C   UNL     1      11.548  -1.894  -6.301  0.00  0.00    +0.000 C 
BRANCH  21  22
ATOM     22  C   UNL     1      13.080  -1.825  -6.601  0.00  0.00    +0.000 C 
ATOM     23  O   UNL     1      13.552  -1.872  -7.712  0.00  0.00    +0.000 OA
BRANCH  22  24
ATOM     24  O   UNL     1      13.918  -1.707  -5.572  0.00  0.00    +0.000 OA
ATOM     25  H   UNL     1      13.364  -1.691  -4.802  0.00  0.00    +0.000 HD
ENDBRANCH  22  24
ENDBRANCH  21  22
ENDBRANCH  15  21
ENDBRANCH  14  15
ENDBRANCH   3  14
TORSDOF 10
