REMARK  Name = Gadoversetamide
REMARK  24 active torsions:
REMARK  status: ('A' for Active; 'I' for Inactive)
REMARK    1  A    between atoms: C_2  and  O_3
REMARK    2  A    between atoms: O_3  and  C_4
REMARK    3  A    between atoms: C_4  and  C_5
REMARK    4  A    between atoms: C_5  and  N_6
REMARK    5  A    between atoms: C_7  and  C_9
REMARK    6  A    between atoms: C_9  and  N_10
REMARK    7  A    between atoms: N_10  and  C_11
REMARK    8  A    between atoms: N_10  and  C_33
REMARK    9  A    between atoms: C_11  and  C_12
REMARK   10  A    between atoms: C_12  and  N_13
REMARK   11  A    between atoms: N_13  and  C_14
REMARK   12  A    between atoms: N_13  and  C_29
REMARK   13  A    between atoms: C_14  and  C_15
REMARK   14  A    between atoms: C_15  and  N_16
REMARK   15  A    between atoms: N_16  and  C_17
REMARK   16  A    between atoms: N_16  and  C_21
REMARK   17  A    between atoms: C_17  and  C_18
REMARK   18  A    between atoms: C_21  and  C_22
REMARK   19  A    between atoms: N_24  and  C_25
REMARK   20  A    between atoms: C_25  and  C_26
REMARK   21  A    between atoms: C_26  and  O_27
REMARK   22  A    between atoms: O_27  and  C_28
REMARK   23  A    between atoms: C_29  and  C_30
REMARK   24  A    between atoms: C_33  and  C_34
REMARK                            x       y       z     vdW  Elec       q    Type
REMARK                         _______ _______ _______ _____ _____    ______ ____
ROOT
ATOM      1 GD   UNL     1       0.927  -0.068   0.012  0.00  0.00    +0.000 Gd
ENDROOT
TORSDOF 0
REMARK  Name = Gadoversetamide
REMARK  24 active torsions:
REMARK  status: ('A' for Active; 'I' for Inactive)
REMARK    1  A    between atoms: C_2  and  O_3
REMARK    2  A    between atoms: O_3  and  C_4
REMARK    3  A    between atoms: C_4  and  C_5
REMARK    4  A    between atoms: C_5  and  N_6
REMARK    5  A    between atoms: C_7  and  C_9
REMARK    6  A    between atoms: C_9  and  N_10
REMARK    7  A    between atoms: N_10  and  C_11
REMARK    8  A    between atoms: N_10  and  C_33
REMARK    9  A    between atoms: C_11  and  C_12
REMARK   10  A    between atoms: C_12  and  N_13
REMARK   11  A    between atoms: N_13  and  C_14
REMARK   12  A    between atoms: N_13  and  C_29
REMARK   13  A    between atoms: C_14  and  C_15
REMARK   14  A    between atoms: C_15  and  N_16
REMARK   15  A    between atoms: N_16  and  C_17
REMARK   16  A    between atoms: N_16  and  C_21
REMARK   17  A    between atoms: C_17  and  C_18
REMARK   18  A    between atoms: C_21  and  C_22
REMARK   19  A    between atoms: N_24  and  C_25
REMARK   20  A    between atoms: C_25  and  C_26
REMARK   21  A    between atoms: C_26  and  O_27
REMARK   22  A    between atoms: O_27  and  C_28
REMARK   23  A    between atoms: C_29  and  C_30
REMARK   24  A    between atoms: C_33  and  C_34
REMARK                            x       y       z     vdW  Elec       q    Type
REMARK                         _______ _______ _______ _____ _____    ______ ____
ROOT
ATOM      1  N   UNL     2       8.778   1.700   2.241  0.00  0.00    +0.000 NA
ENDROOT
BRANCH   1   2
ATOM      2  C   UNL     2       8.288   2.180   0.941  0.00  0.00    +0.000 C 
BRANCH   2   3
ATOM      3  C   UNL     2       8.795   3.592   0.698  0.00  0.00    +0.000 C 
ATOM      4  O   UNL     2       9.611   4.230   1.669  0.00  0.00    +0.000 OA
ATOM      5  O   UNL     2       8.488   4.202  -0.374  0.00  0.00    +0.000 OA
ENDBRANCH   2   3
ENDBRANCH   1   2
BRANCH   1   6
ATOM      6  C   UNL     2      10.248   1.700   2.241  0.00  0.00    +0.000 C 
BRANCH   6   7
ATOM      7  C   UNL     2      10.755   1.204   3.586  0.00  0.00    +0.000 C 
BRANCH   7   8
ATOM      8  N   UNL     2      12.225   1.204   3.586  0.00  0.00    +0.000 NA
BRANCH   8   9
ATOM      9  C   UNL     2      12.715   0.725   4.886  0.00  0.00    +0.000 C 
BRANCH   9  10
ATOM     10  C   UNL     2      14.235   0.725   4.886  0.00  0.00    +0.000 C 
ATOM     11  O   UNL     2      14.870   1.105   3.853  0.00  0.00    +0.000 OA
ATOM     12  N   UNL     2      14.970   0.284   6.080  0.00  0.00    +0.000 N 
ATOM     13  H   UNL     2      14.477  -0.011   6.880  0.00  0.00    +0.000 HD
BRANCH  12  14
ATOM     14  C   UNL     2      16.440   0.284   6.080  0.00  0.00    +0.000 C 
BRANCH  14  15
ATOM     15  C   UNL     2      16.946  -0.212   7.425  0.00  0.00    +0.000 C 
BRANCH  15  16
ATOM     16  O   UNL     2      18.366  -0.212   7.425  0.00  0.00    +0.000 OA
ATOM     17  C   UNL     2      18.840  -0.676   8.681  0.00  0.00    +0.000 C 
ENDBRANCH  15  16
ENDBRANCH  14  15
ENDBRANCH  12  14
ENDBRANCH   9  10
ENDBRANCH   8   9
BRANCH   8  18
ATOM     18  C   UNL     2      12.715   2.570   3.351  0.00  0.00    +0.000 C 
BRANCH  18  19
ATOM     19  C   UNL     2      12.208   3.066   2.006  0.00  0.00    +0.000 C 
ATOM     20  O   UNL     2      11.392   2.228   1.202  0.00  0.00    +0.000 OA
ATOM     21  O   UNL     2      12.515   4.231   1.602  0.00  0.00    +0.000 OA
ENDBRANCH  18  19
ENDBRANCH   8  18
ENDBRANCH   7   8
ENDBRANCH   6   7
ENDBRANCH   1   6
BRANCH   1  22
ATOM     22  C   UNL     2       8.288   0.334   2.476  0.00  0.00    +0.000 C 
BRANCH  22  23
ATOM     23  C   UNL     2       8.795  -0.162   3.820  0.00  0.00    +0.000 C 
BRANCH  23  24
ATOM     24  N   UNL     2       8.305  -1.528   4.055  0.00  0.00    +0.000 NA
BRANCH  24  25
ATOM     25  C   UNL     2       8.795  -2.007   5.355  0.00  0.00    +0.000 C 
BRANCH  25  26
ATOM     26  C   UNL     2      10.315  -2.007   5.355  0.00  0.00    +0.000 C 
ATOM     27  O   UNL     2      11.025  -1.582   4.202  0.00  0.00    +0.000 OA
ATOM     28  O   UNL     2      10.950  -2.388   6.388  0.00  0.00    +0.000 OA
ENDBRANCH  25  26
ENDBRANCH  24  25
BRANCH  24  29
ATOM     29  C   UNL     2       6.835  -1.528   4.055  0.00  0.00    +0.000 C 
BRANCH  29  31
ATOM     30  N   UNL     2       4.883  -0.939   2.459  0.00  0.00    +0.000 N 
ATOM     31  C   UNL     2       6.328  -1.032   2.711  0.00  0.00    +0.000 C 
ATOM     32  O   UNL     2       7.154  -0.697   1.804  0.00  0.00    +0.000 OA
ATOM     33  H   UNL     2       4.243  -1.198   3.161  0.00  0.00    +0.000 HD
BRANCH  30  34
ATOM     34  C   UNL     2       4.393  -0.459   1.158  0.00  0.00    +0.000 C 
BRANCH  34  35
ATOM     35  C   UNL     2       2.873  -0.459   1.158  0.00  0.00    +0.000 C 
BRANCH  35  37
ATOM     36  C   UNL     2       0.979   0.004  -0.098  0.00  0.00    +0.000 C 
ATOM     37  O   UNL     2       2.399   0.004  -0.098  0.00  0.00    +0.000 OA
ENDBRANCH  35  37
ENDBRANCH  34  35
ENDBRANCH  30  34
ENDBRANCH  29  31
ENDBRANCH  24  29
ENDBRANCH  23  24
ENDBRANCH  22  23
ENDBRANCH   1  22
TORSDOF 22
