REMARK  Name = Gadoxetic acid
REMARK  23 active torsions:
REMARK  status: ('A' for Active; 'I' for Inactive)
REMARK    1  A    between atoms: C_3  and  C_4
REMARK    2  A    between atoms: C_3  and  C_21
REMARK    3  A    between atoms: C_3  and  N_31
REMARK    4  A    between atoms: C_4  and  N_5
REMARK    5  A    between atoms: N_5  and  C_6
REMARK    6  A    between atoms: N_5  and  C_17
REMARK    7  A    between atoms: C_6  and  C_7
REMARK    8  A    between atoms: C_7  and  N_8
REMARK    9  A    between atoms: N_8  and  C_9
REMARK   10  A    between atoms: N_8  and  C_13
REMARK   11  A    between atoms: C_9  and  C_10
REMARK   12  A    between atoms: C_13  and  C_14
REMARK   13  A    between atoms: C_17  and  C_18
REMARK   14  A    between atoms: C_21  and  C_22
REMARK   15  A    between atoms: C_25  and  O_26
REMARK   16  A    between atoms: O_26  and  C_27
REMARK   17  A    between atoms: C_27  and  C_28
REMARK   18  A    between atoms: N_31  and  C_32
REMARK   19  A    between atoms: N_31  and  C_36
REMARK   20  A    between atoms: C_32  and  C_33
REMARK   21  A    between atoms: C_33  and  O_34
REMARK   22  A    between atoms: C_36  and  C_37
REMARK   23  A    between atoms: C_37  and  O_38
REMARK                            x       y       z     vdW  Elec       q    Type
REMARK                         _______ _______ _______ _____ _____    ______ ____
ROOT
ATOM      1 GD   UNL     1       0.969   0.067  -0.067  0.00  0.00    +0.000 Gd
ENDROOT
TORSDOF 0
REMARK  Name = Gadoxetic acid
REMARK  23 active torsions:
REMARK  status: ('A' for Active; 'I' for Inactive)
REMARK    1  A    between atoms: C_3  and  C_4
REMARK    2  A    between atoms: C_3  and  C_21
REMARK    3  A    between atoms: C_3  and  N_31
REMARK    4  A    between atoms: C_4  and  N_5
REMARK    5  A    between atoms: N_5  and  C_6
REMARK    6  A    between atoms: N_5  and  C_17
REMARK    7  A    between atoms: C_6  and  C_7
REMARK    8  A    between atoms: C_7  and  N_8
REMARK    9  A    between atoms: N_8  and  C_9
REMARK   10  A    between atoms: N_8  and  C_13
REMARK   11  A    between atoms: C_9  and  C_10
REMARK   12  A    between atoms: C_13  and  C_14
REMARK   13  A    between atoms: C_17  and  C_18
REMARK   14  A    between atoms: C_21  and  C_22
REMARK   15  A    between atoms: C_25  and  O_26
REMARK   16  A    between atoms: O_26  and  C_27
REMARK   17  A    between atoms: C_27  and  C_28
REMARK   18  A    between atoms: N_31  and  C_32
REMARK   19  A    between atoms: N_31  and  C_36
REMARK   20  A    between atoms: C_32  and  C_33
REMARK   21  A    between atoms: C_33  and  O_34
REMARK   22  A    between atoms: C_36  and  C_37
REMARK   23  A    between atoms: C_37  and  O_38
REMARK                            x       y       z     vdW  Elec       q    Type
REMARK                         _______ _______ _______ _____ _____    ______ ____
ROOT
ATOM      1  C   UNL     2       2.100  -0.041   0.086  0.00  0.00    +0.000 C 
ENDROOT
BRANCH   1   2
ATOM      2  C   UNL     2       2.607   1.271   0.663  0.00  0.00    +0.000 C 
BRANCH   2   3
ATOM      3  C   UNL     2       2.100   2.427  -0.184  0.00  0.00    +0.000 A 
ATOM      4  C   UNL     2       2.776   3.619   0.018  0.00  0.00    +0.000 A 
ATOM      5  C   UNL     2       2.196   4.726  -0.646  0.00  0.00    +0.000 A 
ATOM      6  C   UNL     2       1.337   4.634  -1.645  0.00  0.00    +0.000 A 
ATOM      7  C   UNL     2       0.754   3.412  -1.835  0.00  0.00    +0.000 A 
ATOM      8  C   UNL     2       1.176   2.310  -1.131  0.00  0.00    +0.000 A 
BRANCH   6   9
ATOM      9  O   UNL     2       1.033   5.745  -2.475  0.00  0.00    +0.000 OA
BRANCH   9  10
ATOM     10  C   UNL     2       0.103   5.604  -3.538  0.00  0.00    +0.000 C 
ATOM     11  C   UNL     2      -0.041   6.930  -4.267  0.00  0.00    +0.000 C 
ENDBRANCH   9  10
ENDBRANCH   6   9
ENDBRANCH   2   3
ENDBRANCH   1   2
BRANCH   1  12
ATOM     12  N   UNL     2       2.590  -1.158   0.906  0.00  0.00    +0.000 NA
BRANCH  12  13
ATOM     13  C   UNL     2       2.100  -2.427   0.348  0.00  0.00    +0.000 C 
BRANCH  13  14
ATOM     14  C   UNL     2       0.580  -2.427   0.348  0.00  0.00    +0.000 C 
ATOM     15  O   UNL     2      -0.055  -3.434  -0.096  0.00  0.00    +0.000 OA
BRANCH  14  16
ATOM     16  O   UNL     2      -0.130  -1.301   0.843  0.00  0.00    +0.000 OA
ATOM     17  H   UNL     2       0.339  -0.558   1.170  0.00  0.00    +0.000 HD
ENDBRANCH  14  16
ENDBRANCH  13  14
ENDBRANCH  12  13
BRANCH  12  18
ATOM     18  C   UNL     2       4.060  -1.158   0.906  0.00  0.00    +0.000 C 
BRANCH  18  19
ATOM     19  C   UNL     2       4.567  -2.314   1.753  0.00  0.00    +0.000 C 
ATOM     20  O   UNL     2       5.817  -2.501   1.891  0.00  0.00    +0.000 OA
BRANCH  19  21
ATOM     21  O   UNL     2       3.644  -3.184   2.391  0.00  0.00    +0.000 OA
ATOM     22  H   UNL     2       2.723  -3.046   2.290  0.00  0.00    +0.000 HD
ENDBRANCH  19  21
ENDBRANCH  18  19
ENDBRANCH  12  18
ENDBRANCH   1  12
BRANCH   1  23
ATOM     23  C   UNL     2       2.607  -0.197  -1.338  0.00  0.00    +0.000 C 
BRANCH  23  24
ATOM     24  N   UNL     2       2.117  -1.465  -1.896  0.00  0.00    +0.000 NA
BRANCH  24  25
ATOM     25  C   UNL     2       2.607  -1.616  -3.274  0.00  0.00    +0.000 C 
BRANCH  25  26
ATOM     26  C   UNL     2       2.100  -2.928  -3.851  0.00  0.00    +0.000 C 
ATOM     27  O   UNL     2       1.284  -3.782  -3.063  0.00  0.00    +0.000 OA
ATOM     28  O   UNL     2       2.407  -3.260  -5.039  0.00  0.00    +0.000 OA
ENDBRANCH  25  26
ENDBRANCH  24  25
BRANCH  24  29
ATOM     29  C   UNL     2       0.647  -1.465  -1.896  0.00  0.00    +0.000 C 
BRANCH  29  30
ATOM     30  C   UNL     2       0.140  -1.309  -0.472  0.00  0.00    +0.000 C 
BRANCH  30  31
ATOM     31  N   UNL     2      -1.330  -1.309  -0.472  0.00  0.00    +0.000 NA
BRANCH  31  32
ATOM     32  C   UNL     2      -1.820  -1.158   0.906  0.00  0.00    +0.000 C 
BRANCH  32  33
ATOM     33  C   UNL     2      -3.340  -1.158   0.906  0.00  0.00    +0.000 C 
ATOM     34  O   UNL     2      -4.050  -1.292  -0.317  0.00  0.00    +0.000 OA
ATOM     35  O   UNL     2      -3.975  -1.038   2.000  0.00  0.00    +0.000 OA
ENDBRANCH  32  33
ENDBRANCH  31  32
BRANCH  31  36
ATOM     36  C   UNL     2      -1.820  -2.578  -1.030  0.00  0.00    +0.000 C 
BRANCH  36  37
ATOM     37  C   UNL     2      -1.313  -2.734  -2.455  0.00  0.00    +0.000 C 
ATOM     38  O   UNL     2      -0.497  -1.726  -3.032  0.00  0.00    +0.000 OA
ATOM     39  O   UNL     2      -1.620  -3.767  -3.129  0.00  0.00    +0.000 OA
ENDBRANCH  36  37
ENDBRANCH  31  36
ENDBRANCH  30  31
ENDBRANCH  29  30
ENDBRANCH  24  29
ENDBRANCH  23  24
ENDBRANCH   1  23
TORSDOF 22
