REMARK  Name = Gadoteridol
REMARK  10 active torsions:
REMARK  status: ('A' for Active; 'I' for Inactive)
REMARK    1  A    between atoms: C_2  and  C_3
REMARK    2  A    between atoms: C_3  and  O_4
REMARK    3  A    between atoms: C_3  and  C_5
REMARK    4  A    between atoms: C_5  and  N_6
REMARK    5  A    between atoms: N_9  and  C_10
REMARK    6  A    between atoms: C_10  and  C_11
REMARK    7  A    between atoms: N_16  and  C_17
REMARK    8  A    between atoms: C_17  and  C_18
REMARK    9  A    between atoms: N_23  and  C_24
REMARK   10  A    between atoms: C_24  and  C_25
REMARK                            x       y       z     vdW  Elec       q    Type
REMARK                         _______ _______ _______ _____ _____    ______ ____
ROOT
ATOM      1 GD   UNL     1       0.936   0.058  -0.050  0.00  0.00    +0.000 Gd
ENDROOT
TORSDOF 0
REMARK  Name = Gadoteridol
REMARK  10 active torsions:
REMARK  status: ('A' for Active; 'I' for Inactive)
REMARK    1  A    between atoms: C_2  and  C_3
REMARK    2  A    between atoms: C_3  and  O_4
REMARK    3  A    between atoms: C_3  and  C_5
REMARK    4  A    between atoms: C_5  and  N_6
REMARK    5  A    between atoms: N_9  and  C_10
REMARK    6  A    between atoms: C_10  and  C_11
REMARK    7  A    between atoms: N_16  and  C_17
REMARK    8  A    between atoms: C_17  and  C_18
REMARK    9  A    between atoms: N_23  and  C_24
REMARK   10  A    between atoms: C_24  and  C_25
REMARK                            x       y       z     vdW  Elec       q    Type
REMARK                         _______ _______ _______ _____ _____    ______ ____
ROOT
ATOM      1  N   UNL     2       4.408  -1.340   0.616  0.00  0.00    +0.000 NA
ATOM      2  C   UNL     2       4.893  -2.655   0.184  0.00  0.00    +0.000 C 
ATOM      3  C   UNL     2       6.304  -2.934   0.665  0.00  0.00    +0.000 C 
ATOM      4  N   UNL     2       6.306  -3.578   1.987  0.00  0.00    +0.000 NA
ATOM      5  C   UNL     2       7.517  -3.297   2.749  0.00  0.00    +0.000 C 
ATOM      6  C   UNL     2       7.556  -1.903   3.329  0.00  0.00    +0.000 C 
ATOM      7  N   UNL     2       8.042  -0.859   2.415  0.00  0.00    +0.000 NA
ATOM      8  C   UNL     2       7.557   0.457   2.848  0.00  0.00    +0.000 C 
ATOM      9  C   UNL     2       6.146   0.735   2.366  0.00  0.00    +0.000 C 
ATOM     10  N   UNL     2       6.144   1.379   1.046  0.00  0.00    +0.000 NA
ATOM     11  C   UNL     2       4.933   1.099   0.282  0.00  0.00    +0.000 C 
ATOM     12  C   UNL     2       4.894  -0.296  -0.297  0.00  0.00    +0.000 C 
ENDROOT
BRANCH   1  13
ATOM     13  C   UNL     2       2.938  -1.340   0.616  0.00  0.00    +0.000 C 
BRANCH  13  15
ATOM     14  C   UNL     2       0.911  -0.046  -0.000  0.00  0.00    +0.000 C 
ATOM     15  C   UNL     2       2.431  -0.046  -0.000  0.00  0.00    +0.000 C 
BRANCH  15  16
ATOM     16  O   UNL     2       2.905   1.057   0.759  0.00  0.00    +0.000 OA
ATOM     17  H   UNL     2       2.581   0.985   1.670  0.00  0.00    +0.000 HD
ENDBRANCH  15  16
ENDBRANCH  13  15
ENDBRANCH   1  13
BRANCH   4  18
ATOM     18  C   UNL     2       5.147  -3.090   2.749  0.00  0.00    +0.000 C 
BRANCH  18  19
ATOM     19  C   UNL     2       5.131  -3.745   4.120  0.00  0.00    +0.000 C 
ATOM     20  O   UNL     2       6.147  -4.671   4.477  0.00  0.00    +0.000 OA
ATOM     21  O   UNL     2       4.209  -3.464   4.948  0.00  0.00    +0.000 OA
ENDBRANCH  18  19
ENDBRANCH   4  18
BRANCH   7  22
ATOM     22  C   UNL     2       9.512  -0.859   2.415  0.00  0.00    +0.000 C 
BRANCH  22  23
ATOM     23  C   UNL     2      10.019   0.220   1.472  0.00  0.00    +0.000 C 
ATOM     24  O   UNL     2       9.096   1.033   0.761  0.00  0.00    +0.000 OA
ATOM     25  O   UNL     2      11.269   0.395   1.319  0.00  0.00    +0.000 OA
ENDBRANCH  22  23
ENDBRANCH   7  22
BRANCH  10  26
ATOM     26  C   UNL     2       6.255   2.833   1.232  0.00  0.00    +0.000 C 
BRANCH  26  27
ATOM     27  C   UNL     2       6.254   3.519  -0.124  0.00  0.00    +0.000 C 
ATOM     28  O   UNL     2       6.154   2.746  -1.311  0.00  0.00    +0.000 OA
ATOM     29  O   UNL     2       6.342   4.785  -0.196  0.00  0.00    +0.000 OA
ENDBRANCH  26  27
ENDBRANCH  10  26
TORSDOF 9
