REMARK  Name = Gadopentetic acid
REMARK  18 active torsions:
REMARK  status: ('A' for Active; 'I' for Inactive)
REMARK    1  A    between atoms: O_2  and  C_3
REMARK    2  A    between atoms: C_3  and  C_5
REMARK    3  A    between atoms: C_5  and  N_6
REMARK    4  A    between atoms: N_6  and  C_7
REMARK    5  A    between atoms: N_6  and  C_25
REMARK    6  A    between atoms: C_7  and  C_8
REMARK    7  A    between atoms: C_8  and  N_9
REMARK    8  A    between atoms: N_9  and  C_10
REMARK    9  A    between atoms: N_9  and  C_21
REMARK   10  A    between atoms: C_10  and  C_11
REMARK   11  A    between atoms: C_11  and  N_12
REMARK   12  A    between atoms: N_12  and  C_13
REMARK   13  A    between atoms: N_12  and  C_17
REMARK   14  A    between atoms: C_13  and  C_14
REMARK   15  A    between atoms: C_14  and  O_15
REMARK   16  A    between atoms: C_17  and  C_18
REMARK   17  A    between atoms: C_21  and  C_22
REMARK   18  A    between atoms: C_25  and  C_26
REMARK                            x       y       z     vdW  Elec       q    Type
REMARK                         _______ _______ _______ _____ _____    ______ ____
ROOT
ATOM      1 GD   UNL     1       1.088  -0.029   0.036  0.00  0.00    +0.000 Gd
ENDROOT
TORSDOF 0
REMARK  Name = Gadopentetic acid
REMARK  18 active torsions:
REMARK  status: ('A' for Active; 'I' for Inactive)
REMARK    1  A    between atoms: O_2  and  C_3
REMARK    2  A    between atoms: C_3  and  C_5
REMARK    3  A    between atoms: C_5  and  N_6
REMARK    4  A    between atoms: N_6  and  C_7
REMARK    5  A    between atoms: N_6  and  C_25
REMARK    6  A    between atoms: C_7  and  C_8
REMARK    7  A    between atoms: C_8  and  N_9
REMARK    8  A    between atoms: N_9  and  C_10
REMARK    9  A    between atoms: N_9  and  C_21
REMARK   10  A    between atoms: C_10  and  C_11
REMARK   11  A    between atoms: C_11  and  N_12
REMARK   12  A    between atoms: N_12  and  C_13
REMARK   13  A    between atoms: N_12  and  C_17
REMARK   14  A    between atoms: C_13  and  C_14
REMARK   15  A    between atoms: C_14  and  O_15
REMARK   16  A    between atoms: C_17  and  C_18
REMARK   17  A    between atoms: C_21  and  C_22
REMARK   18  A    between atoms: C_25  and  C_26
REMARK                            x       y       z     vdW  Elec       q    Type
REMARK                         _______ _______ _______ _____ _____    ______ ____
ROOT
ATOM      1  N   UNL     2       4.633   2.950   0.403  0.00  0.00    +0.000 NA
ENDROOT
BRANCH   1   2
ATOM      2  C   UNL     2       6.078   3.144   0.217  0.00  0.00    +0.000 C 
BRANCH   2   3
ATOM      3  C   UNL     2       6.838   2.193   1.127  0.00  0.00    +0.000 C 
BRANCH   3   4
ATOM      4  N   UNL     2       8.283   2.387   0.941  0.00  0.00    +0.000 NA
BRANCH   4   5
ATOM      5  C   UNL     2       8.638   3.774   1.276  0.00  0.00    +0.000 C 
BRANCH   5   6
ATOM      6  C   UNL     2       7.878   4.725   0.366  0.00  0.00    +0.000 C 
ATOM      7  O   UNL     2       8.037   5.980   0.484  0.00  0.00    +0.000 OA
BRANCH   6   8
ATOM      8  O   UNL     2       6.991   4.211  -0.616  0.00  0.00    +0.000 OA
ATOM      9  H   UNL     2       6.874   3.285  -0.703  0.00  0.00    +0.000 HD
ENDBRANCH   6   8
ENDBRANCH   5   6
ENDBRANCH   4   5
BRANCH   4  10
ATOM     10  C   UNL     2       9.018   1.467   1.822  0.00  0.00    +0.000 C 
BRANCH  10  11
ATOM     11  C   UNL     2      10.513   1.668   1.630  0.00  0.00    +0.000 C 
ATOM     12  O   UNL     2      10.986   2.635   0.704  0.00  0.00    +0.000 OA
ATOM     13  O   UNL     2      11.339   0.970   2.297  0.00  0.00    +0.000 OA
ENDBRANCH  10  11
ENDBRANCH   4  10
ENDBRANCH   3   4
ENDBRANCH   2   3
ENDBRANCH   1   2
BRANCH   1  14
ATOM     14  C   UNL     2       4.278   1.563   0.069  0.00  0.00    +0.000 C 
BRANCH  14  15
ATOM     15  C   UNL     2       5.038   0.612   0.979  0.00  0.00    +0.000 C 
BRANCH  15  16
ATOM     16  N   UNL     2       4.683  -0.775   0.644  0.00  0.00    +0.000 NA
BRANCH  16  17
ATOM     17  C   UNL     2       3.237  -0.969   0.830  0.00  0.00    +0.000 C 
BRANCH  17  18
ATOM     18  C   UNL     2       2.477  -0.018  -0.080  0.00  0.00    +0.000 C 
ATOM     19  O   UNL     2       3.113   0.778  -0.841  0.00  0.00    +0.000 OA
BRANCH  18  20
ATOM     20  O   UNL     2       1.057  -0.018  -0.080  0.00  0.00    +0.000 OA
ATOM     21  H   UNL     2       0.589  -0.604   0.481  0.00  0.00    +0.000 HD
ENDBRANCH  18  20
ENDBRANCH  17  18
ENDBRANCH  16  17
BRANCH  16  22
ATOM     22  C   UNL     2       5.418  -1.694   1.524  0.00  0.00    +0.000 C 
BRANCH  22  23
ATOM     23  C   UNL     2       6.912  -1.494   1.332  0.00  0.00    +0.000 C 
ATOM     24  O   UNL     2       7.385  -0.526   0.407  0.00  0.00    +0.000 OA
ATOM     25  O   UNL     2       7.738  -2.192   2.000  0.00  0.00    +0.000 OA
ENDBRANCH  22  23
ENDBRANCH  16  22
ENDBRANCH  15  16
ENDBRANCH  14  15
ENDBRANCH   1  14
BRANCH   1  26
ATOM     26  C   UNL     2       3.898   3.870  -0.477  0.00  0.00    +0.000 C 
BRANCH  26  27
ATOM     27  C   UNL     2       4.265   5.304  -0.132  0.00  0.00    +0.000 C 
ATOM     28  O   UNL     2       5.194   5.568   0.910  0.00  0.00    +0.000 OA
ATOM     29  O   UNL     2       3.741   6.267  -0.775  0.00  0.00    +0.000 OA
ENDBRANCH  26  27
ENDBRANCH   1  26
TORSDOF 18
