REMARK  Name = Gadodiamide
REMARK  18 active torsions:
REMARK  status: ('A' for Active; 'I' for Inactive)
REMARK    1  A    between atoms: C_2  and  N_3
REMARK    2  A    between atoms: C_4  and  C_6
REMARK    3  A    between atoms: C_6  and  N_7
REMARK    4  A    between atoms: N_7  and  C_8
REMARK    5  A    between atoms: N_7  and  C_27
REMARK    6  A    between atoms: C_8  and  C_9
REMARK    7  A    between atoms: C_9  and  N_10
REMARK    8  A    between atoms: N_10  and  C_11
REMARK    9  A    between atoms: N_10  and  C_23
REMARK   10  A    between atoms: C_11  and  C_12
REMARK   11  A    between atoms: C_12  and  N_13
REMARK   12  A    between atoms: N_13  and  C_14
REMARK   13  A    between atoms: N_13  and  C_18
REMARK   14  A    between atoms: C_14  and  C_15
REMARK   15  A    between atoms: C_18  and  C_19
REMARK   16  A    between atoms: N_21  and  C_22
REMARK   17  A    between atoms: C_23  and  C_24
REMARK   18  A    between atoms: C_27  and  C_28
REMARK                            x       y       z     vdW  Elec       q    Type
REMARK                         _______ _______ _______ _____ _____    ______ ____
ROOT
ATOM      1 GD   UNL     1       0.963  -0.042   0.083  0.00  0.00    +0.000 Gd
ENDROOT
TORSDOF 0
REMARK  Name = Gadodiamide
REMARK  18 active torsions:
REMARK  status: ('A' for Active; 'I' for Inactive)
REMARK    1  A    between atoms: C_2  and  N_3
REMARK    2  A    between atoms: C_4  and  C_6
REMARK    3  A    between atoms: C_6  and  N_7
REMARK    4  A    between atoms: N_7  and  C_8
REMARK    5  A    between atoms: N_7  and  C_27
REMARK    6  A    between atoms: C_8  and  C_9
REMARK    7  A    between atoms: C_9  and  N_10
REMARK    8  A    between atoms: N_10  and  C_11
REMARK    9  A    between atoms: N_10  and  C_23
REMARK   10  A    between atoms: C_11  and  C_12
REMARK   11  A    between atoms: C_12  and  N_13
REMARK   12  A    between atoms: N_13  and  C_14
REMARK   13  A    between atoms: N_13  and  C_18
REMARK   14  A    between atoms: C_14  and  C_15
REMARK   15  A    between atoms: C_18  and  C_19
REMARK   16  A    between atoms: N_21  and  C_22
REMARK   17  A    between atoms: C_23  and  C_24
REMARK   18  A    between atoms: C_27  and  C_28
REMARK                            x       y       z     vdW  Elec       q    Type
REMARK                         _______ _______ _______ _____ _____    ______ ____
ROOT
ATOM      1  N   UNL     2       2.780  -1.145  -4.602  0.00  0.00    +0.000 NA
ENDROOT
BRANCH   1   2
ATOM      2  C   UNL     2       1.310  -1.145  -4.602  0.00  0.00    +0.000 C 
BRANCH   2   3
ATOM      3  C   UNL     2       0.804  -0.747  -5.978  0.00  0.00    +0.000 C 
ATOM      4  O   UNL     2       1.726  -0.447  -7.015  0.00  0.00    +0.000 OA
ATOM      5  O   UNL     2      -0.446  -0.683  -6.201  0.00  0.00    +0.000 OA
ENDBRANCH   2   3
ENDBRANCH   1   2
BRANCH   1   6
ATOM      6  C   UNL     2       3.270  -2.106  -5.601  0.00  0.00    +0.000 C 
BRANCH   6   7
ATOM      7  C   UNL     2       4.790  -2.106  -5.601  0.00  0.00    +0.000 C 
BRANCH   7   8
ATOM      8  N   UNL     2       5.280  -3.066  -6.600  0.00  0.00    +0.000 NA
BRANCH   8   9
ATOM      9  C   UNL     2       6.750  -3.066  -6.600  0.00  0.00    +0.000 C 
BRANCH   9  10
ATOM     10  C   UNL     2       7.257  -4.060  -7.633  0.00  0.00    +0.000 C 
ATOM     11  O   UNL     2       6.431  -4.729  -8.329  0.00  0.00    +0.000 OA
ATOM     12  N   UNL     2       8.702  -4.246  -7.827  0.00  0.00    +0.000 N 
ATOM     13  C   UNL     2       9.192  -5.206  -8.826  0.00  0.00    +0.000 C 
ATOM     14  H   UNL     2       9.342  -3.727  -7.287  0.00  0.00    +0.000 HD
ENDBRANCH   9  10
ENDBRANCH   8   9
BRANCH   8  15
ATOM     15  C   UNL     2       4.790  -2.681  -7.931  0.00  0.00    +0.000 C 
BRANCH  15  16
ATOM     16  C   UNL     2       3.270  -2.681  -7.931  0.00  0.00    +0.000 C 
ATOM     17  O   UNL     2       2.560  -3.023  -6.750  0.00  0.00    +0.000 OA
ATOM     18  O   UNL     2       2.635  -2.376  -8.988  0.00  0.00    +0.000 OA
ENDBRANCH  15  16
ENDBRANCH   8  15
ENDBRANCH   7   8
ENDBRANCH   6   7
ENDBRANCH   1   6
BRANCH   1  19
ATOM     19  C   UNL     2       3.270  -1.530  -3.270  0.00  0.00    +0.000 C 
BRANCH  19  20
ATOM     20  C   UNL     2       4.790  -1.530  -3.270  0.00  0.00    +0.000 C 
BRANCH  20  21
ATOM     21  N   UNL     2       5.280  -1.915  -1.939  0.00  0.00    +0.000 NA
BRANCH  21  22
ATOM     22  C   UNL     2       6.750  -1.915  -1.939  0.00  0.00    +0.000 C 
BRANCH  22  23
ATOM     23  C   UNL     2       7.257  -2.909  -2.972  0.00  0.00    +0.000 C 
ATOM     24  O   UNL     2       6.334  -3.657  -3.750  0.00  0.00    +0.000 OA
ATOM     25  O   UNL     2       8.506  -3.069  -3.139  0.00  0.00    +0.000 OA
ENDBRANCH  22  23
ENDBRANCH  21  22
BRANCH  21  26
ATOM     26  C   UNL     2       4.790  -0.955  -0.940  0.00  0.00    +0.000 C 
BRANCH  26  29
ATOM     27  C   UNL     2       1.065  -0.073  -0.022  0.00  0.00    +0.000 C 
ATOM     28  N   UNL     2       2.535  -0.073  -0.022  0.00  0.00    +0.000 N 
ATOM     29  C   UNL     2       3.270  -0.955  -0.940  0.00  0.00    +0.000 C 
ATOM     30  O   UNL     2       2.635  -1.718  -1.733  0.00  0.00    +0.000 OA
ATOM     31  H   UNL     2       3.027   0.518   0.593  0.00  0.00    +0.000 HD
ENDBRANCH  26  29
ENDBRANCH  21  26
ENDBRANCH  20  21
ENDBRANCH  19  20
ENDBRANCH   1  19
TORSDOF 16
