REMARK  Name = Gadoteric acid
REMARK  9 active torsions:
REMARK  status: ('A' for Active; 'I' for Inactive)
REMARK    1  A    between atoms: O_2  and  C_3
REMARK    2  A    between atoms: C_3  and  C_5
REMARK    3  A    between atoms: C_5  and  N_6
REMARK    4  A    between atoms: N_9  and  C_10
REMARK    5  A    between atoms: C_10  and  C_11
REMARK    6  A    between atoms: N_16  and  C_17
REMARK    7  A    between atoms: C_17  and  C_18
REMARK    8  A    between atoms: N_23  and  C_24
REMARK    9  A    between atoms: C_24  and  C_25
REMARK                            x       y       z     vdW  Elec       q    Type
REMARK                         _______ _______ _______ _____ _____    ______ ____
ROOT
ATOM      1 GD   UNL     1       1.016   0.079  -0.059  0.00  0.00    +0.000 Gd
ENDROOT
TORSDOF 0
REMARK  Name = Gadoteric acid
REMARK  9 active torsions:
REMARK  status: ('A' for Active; 'I' for Inactive)
REMARK    1  A    between atoms: O_2  and  C_3
REMARK    2  A    between atoms: C_3  and  C_5
REMARK    3  A    between atoms: C_5  and  N_6
REMARK    4  A    between atoms: N_9  and  C_10
REMARK    5  A    between atoms: C_10  and  C_11
REMARK    6  A    between atoms: N_16  and  C_17
REMARK    7  A    between atoms: C_17  and  C_18
REMARK    8  A    between atoms: N_23  and  C_24
REMARK    9  A    between atoms: C_24  and  C_25
REMARK                            x       y       z     vdW  Elec       q    Type
REMARK                         _______ _______ _______ _____ _____    ______ ____
ROOT
ATOM      1  N   UNL     2       4.705  -0.947   0.575  0.00  0.00    +0.000 NA
ATOM      2  C   UNL     2       5.309  -2.169   0.032  0.00  0.00    +0.000 C 
ATOM      3  C   UNL     2       6.779  -2.289   0.387  0.00  0.00    +0.000 C 
ATOM      4  N   UNL     2       6.970  -2.988   1.666  0.00  0.00    +0.000 NA
ATOM      5  C   UNL     2       8.197  -2.592   2.347  0.00  0.00    +0.000 C 
ATOM      6  C   UNL     2       8.115  -1.233   3.000  0.00  0.00    +0.000 C 
ATOM      7  N   UNL     2       8.391  -0.094   2.112  0.00  0.00    +0.000 NA
ATOM      8  C   UNL     2       7.787   1.128   2.654  0.00  0.00    +0.000 C 
ATOM      9  C   UNL     2       6.317   1.248   2.299  0.00  0.00    +0.000 C 
ATOM     10  N   UNL     2       6.125   1.947   1.021  0.00  0.00    +0.000 NA
ATOM     11  C   UNL     2       4.899   1.551   0.339  0.00  0.00    +0.000 C 
ATOM     12  C   UNL     2       4.982   0.192  -0.313  0.00  0.00    +0.000 C 
ENDROOT
BRANCH   1  13
ATOM     13  C   UNL     2       3.260  -1.176   0.715  0.00  0.00    +0.000 C 
BRANCH  13  14
ATOM     14  C   UNL     2       2.500  -0.053   0.028  0.00  0.00    +0.000 C 
ATOM     15  O   UNL     2       3.135   0.886  -0.546  0.00  0.00    +0.000 OA
BRANCH  14  16
ATOM     16  O   UNL     2       1.080  -0.053   0.028  0.00  0.00    +0.000 OA
ATOM     17  H   UNL     2       0.611  -0.745   0.451  0.00  0.00    +0.000 HD
ENDBRANCH  14  16
ENDBRANCH  13  14
ENDBRANCH   1  13
BRANCH   4  18
ATOM     18  C   UNL     2       5.829  -2.687   2.542  0.00  0.00    +0.000 C 
BRANCH  18  19
ATOM     19  C   UNL     2       6.008  -3.401   3.871  0.00  0.00    +0.000 C 
ATOM     20  O   UNL     2       7.155  -4.207   4.095  0.00  0.00    +0.000 OA
ATOM     21  O   UNL     2       5.130  -3.278   4.782  0.00  0.00    +0.000 OA
ENDBRANCH  18  19
ENDBRANCH   4  18
BRANCH   7  22
ATOM     22  C   UNL     2       9.845   0.091   1.998  0.00  0.00    +0.000 C 
BRANCH  22  23
ATOM     23  C   UNL     2      10.135   1.268   1.081  0.00  0.00    +0.000 C 
ATOM     24  O   UNL     2       9.064   1.989   0.490  0.00  0.00    +0.000 OA
ATOM     25  O   UNL     2      11.337   1.606   0.842  0.00  0.00    +0.000 OA
ENDBRANCH  22  23
ENDBRANCH   7  22
BRANCH  10  26
ATOM     26  C   UNL     2       6.073   3.393   1.280  0.00  0.00    +0.000 C 
BRANCH  26  27
ATOM     27  C   UNL     2       5.875   4.136  -0.031  0.00  0.00    +0.000 C 
ATOM     28  O   UNL     2       5.772   3.412  -1.248  0.00  0.00    +0.000 OA
ATOM     29  O   UNL     2       5.802   5.404  -0.038  0.00  0.00    +0.000 OA
ENDBRANCH  26  27
ENDBRANCH  10  26
TORSDOF 9
