REMARK  Name = Gadobenic acid
REMARK  22 active torsions:
REMARK  status: ('A' for Active; 'I' for Inactive)
REMARK    1  A    between atoms: O_2  and  C_3
REMARK    2  A    between atoms: C_3  and  C_5
REMARK    3  A    between atoms: C_5  and  N_6
REMARK    4  A    between atoms: N_6  and  C_7
REMARK    5  A    between atoms: N_6  and  C_25
REMARK    6  A    between atoms: C_7  and  C_8
REMARK    7  A    between atoms: C_8  and  N_9
REMARK    8  A    between atoms: N_9  and  C_10
REMARK    9  A    between atoms: N_9  and  C_21
REMARK   10  A    between atoms: C_10  and  C_11
REMARK   11  A    between atoms: C_11  and  N_12
REMARK   12  A    between atoms: N_12  and  C_13
REMARK   13  A    between atoms: N_12  and  C_17
REMARK   14  A    between atoms: C_13  and  C_14
REMARK   15  A    between atoms: C_17  and  C_18
REMARK   16  A    between atoms: C_21  and  C_22
REMARK   17  A    between atoms: C_25  and  C_26
REMARK   18  A    between atoms: C_25  and  C_35
REMARK   19  A    between atoms: C_26  and  O_27
REMARK   20  A    between atoms: O_27  and  C_28
REMARK   21  A    between atoms: C_28  and  C_29
REMARK   22  A    between atoms: C_35  and  O_36
REMARK                            x       y       z     vdW  Elec       q    Type
REMARK                         _______ _______ _______ _____ _____    ______ ____
ROOT
ATOM      1 GD   UNL     1       0.906   0.032   0.014  0.00  0.00    +0.000 Gd
ENDROOT
TORSDOF 0
REMARK  Name = Gadobenic acid
REMARK  22 active torsions:
REMARK  status: ('A' for Active; 'I' for Inactive)
REMARK    1  A    between atoms: O_2  and  C_3
REMARK    2  A    between atoms: C_3  and  C_5
REMARK    3  A    between atoms: C_5  and  N_6
REMARK    4  A    between atoms: N_6  and  C_7
REMARK    5  A    between atoms: N_6  and  C_25
REMARK    6  A    between atoms: C_7  and  C_8
REMARK    7  A    between atoms: C_8  and  N_9
REMARK    8  A    between atoms: N_9  and  C_10
REMARK    9  A    between atoms: N_9  and  C_21
REMARK   10  A    between atoms: C_10  and  C_11
REMARK   11  A    between atoms: C_11  and  N_12
REMARK   12  A    between atoms: N_12  and  C_13
REMARK   13  A    between atoms: N_12  and  C_17
REMARK   14  A    between atoms: C_13  and  C_14
REMARK   15  A    between atoms: C_17  and  C_18
REMARK   16  A    between atoms: C_21  and  C_22
REMARK   17  A    between atoms: C_25  and  C_26
REMARK   18  A    between atoms: C_25  and  C_35
REMARK   19  A    between atoms: C_26  and  O_27
REMARK   20  A    between atoms: O_27  and  C_28
REMARK   21  A    between atoms: C_28  and  C_29
REMARK   22  A    between atoms: C_35  and  O_36
REMARK                            x       y       z     vdW  Elec       q    Type
REMARK                         _______ _______ _______ _____ _____    ______ ____
ROOT
ATOM      1  N   UNL     2       4.620   0.608   0.973  0.00  0.00    +0.000 NA
ENDROOT
BRANCH   1   2
ATOM      2  C   UNL     2       4.975   1.229  -0.312  0.00  0.00    +0.000 C 
BRANCH   2   3
ATOM      3  C   UNL     2       4.215   0.541  -1.434  0.00  0.00    +0.000 C 
BRANCH   3   4
ATOM      4  N   UNL     2       4.570   1.162  -2.719  0.00  0.00    +0.000 NA
BRANCH   4   5
ATOM      5  C   UNL     2       6.015   1.022  -2.948  0.00  0.00    +0.000 C 
BRANCH   5   6
ATOM      6  C   UNL     2       6.775   1.709  -1.825  0.00  0.00    +0.000 C 
BRANCH   6   7
ATOM      7  N   UNL     2       8.220   1.569  -2.054  0.00  0.00    +0.000 NA
BRANCH   7   8
ATOM      8  C   UNL     2       8.575   2.190  -3.339  0.00  0.00    +0.000 C 
BRANCH   8   9
ATOM      9  C   UNL     2       7.815   1.502  -4.461  0.00  0.00    +0.000 C 
ATOM     10  O   UNL     2       6.928   0.433  -4.167  0.00  0.00    +0.000 OA
ATOM     11  O   UNL     2       7.974   1.884  -5.663  0.00  0.00    +0.000 OA
ENDBRANCH   8   9
ENDBRANCH   7   8
BRANCH   7  12
ATOM     12  C   UNL     2       8.955   2.234  -0.969  0.00  0.00    +0.000 C 
BRANCH  12  13
ATOM     13  C   UNL     2      10.450   2.089  -1.206  0.00  0.00    +0.000 C 
ATOM     14  O   UNL     2      10.923   1.390  -2.347  0.00  0.00    +0.000 OA
ATOM     15  O   UNL     2      11.276   2.594  -0.382  0.00  0.00    +0.000 OA
ENDBRANCH  12  13
ENDBRANCH   7  12
ENDBRANCH   6   7
ENDBRANCH   5   6
ENDBRANCH   4   5
BRANCH   4  16
ATOM     16  C   UNL     2       3.835   0.497  -3.804  0.00  0.00    +0.000 C 
BRANCH  16  17
ATOM     17  C   UNL     2       4.202   1.139  -5.132  0.00  0.00    +0.000 C 
ATOM     18  O   UNL     2       5.131   2.212  -5.169  0.00  0.00    +0.000 OA
ATOM     19  O   UNL     2       3.678   0.715  -6.209  0.00  0.00    +0.000 OA
ENDBRANCH  16  17
ENDBRANCH   4  16
ENDBRANCH   3   4
ENDBRANCH   2   3
ENDBRANCH   1   2
BRANCH   1  20
ATOM     20  C   UNL     2       5.355   1.273   2.058  0.00  0.00    +0.000 C 
BRANCH  20  21
ATOM     21  C   UNL     2       6.849   1.128   1.821  0.00  0.00    +0.000 C 
ATOM     22  O   UNL     2       7.675   1.633   2.645  0.00  0.00    +0.000 OA
BRANCH  21  23
ATOM     23  O   UNL     2       7.322   0.429   0.680  0.00  0.00    +0.000 OA
ATOM     24  H   UNL     2       6.713   0.057   0.072  0.00  0.00    +0.000 HD
ENDBRANCH  21  23
ENDBRANCH  20  21
BRANCH  20  25
ATOM     25  C   UNL     2       4.987   0.631   3.386  0.00  0.00    +0.000 C 
BRANCH  25  26
ATOM     26  O   UNL     2       3.591   0.767   3.607  0.00  0.00    +0.000 OA
BRANCH  26  27
ATOM     27  C   UNL     2       3.248   0.167   4.848  0.00  0.00    +0.000 C 
BRANCH  27  28
ATOM     28  C   UNL     2       1.754   0.313   5.085  0.00  0.00    +0.000 A 
ATOM     29  C   UNL     2       1.193   1.578   5.132  0.00  0.00    +0.000 A 
ATOM     30  C   UNL     2      -0.126   1.602   5.642  0.00  0.00    +0.000 A 
ATOM     31  C   UNL     2      -0.913   0.546   5.734  0.00  0.00    +0.000 A 
ATOM     32  C   UNL     2      -0.309  -0.675   5.611  0.00  0.00    +0.000 A 
ATOM     33  C   UNL     2       1.010  -0.776   5.243  0.00  0.00    +0.000 A 
ENDBRANCH  27  28
ENDBRANCH  26  27
ENDBRANCH  25  26
ENDBRANCH  20  25
ENDBRANCH   1  20
BRANCH   1  34
ATOM     34  C   UNL     2       3.174   0.749   1.202  0.00  0.00    +0.000 C 
BRANCH  34  35
ATOM     35  C   UNL     2       2.414   0.061   0.079  0.00  0.00    +0.000 C 
ATOM     36  O   UNL     2       3.050  -0.514  -0.859  0.00  0.00    +0.000 OA
BRANCH  35  37
ATOM     37  O   UNL     2       0.994   0.061   0.079  0.00  0.00    +0.000 OA
ATOM     38  H   UNL     2       0.526   0.485   0.771  0.00  0.00    +0.000 HD
ENDBRANCH  35  37
ENDBRANCH  34  35
ENDBRANCH   1  34
TORSDOF 22
