REMARK  Name = Galactose
REMARK  10 active torsions:
REMARK  status: ('A' for Active; 'I' for Inactive)
REMARK    1  A    between atoms: C_2  and  C_4
REMARK    2  A    between atoms: C_4  and  O_5
REMARK    3  A    between atoms: C_4  and  C_6
REMARK    4  A    between atoms: C_6  and  O_7
REMARK    5  A    between atoms: C_6  and  C_8
REMARK    6  A    between atoms: C_8  and  O_9
REMARK    7  A    between atoms: C_8  and  C_10
REMARK    8  A    between atoms: C_10  and  O_11
REMARK    9  A    between atoms: C_10  and  C_12
REMARK   10  A    between atoms: C_12  and  O_13
REMARK                            x       y       z     vdW  Elec       q    Type
REMARK                         _______ _______ _______ _____ _____    ______ ____
ROOT
ATOM      1  C   UNL     1       6.987   1.603  -0.598  0.00  0.00    +0.000 C 
ENDROOT
BRANCH   1   2
ATOM      2  O   UNL     1       8.370   1.588  -0.931  0.00  0.00    +0.000 OA
ATOM      3  H   UNL     1       8.912   1.361  -0.159  0.00  0.00    +0.000 HD
ENDBRANCH   1   2
BRANCH   1   4
ATOM      4  C   UNL     1       6.354   0.280  -1.081  0.00  0.00    +0.000 C 
BRANCH   4   5
ATOM      5  O   UNL     1       4.923   0.369  -0.991  0.00  0.00    +0.000 OA
ATOM      6  H   UNL     1       4.690   0.526  -0.053  0.00  0.00    +0.000 HD
ENDBRANCH   4   5
BRANCH   4   7
ATOM      7  C   UNL     1       6.865  -0.963  -0.317  0.00  0.00    +0.000 C 
BRANCH   7   8
ATOM      8  C   UNL     1       8.365  -1.156  -0.474  0.00  0.00    +0.000 C 
ATOM      9  O   UNL     1       8.887  -1.719  -1.439  0.00  0.00    +0.000 OA
ENDBRANCH   7   8
BRANCH   7  10
ATOM     10  O   UNL     1       6.215  -2.142  -0.789  0.00  0.00    +0.000 OA
ATOM     11  H   UNL     1       6.482  -2.242  -1.722  0.00  0.00    +0.000 HD
ENDBRANCH   7  10
ENDBRANCH   4   7
ENDBRANCH   1   4
BRANCH   1  12
ATOM     12  C   UNL     1       6.666   1.869   0.897  0.00  0.00    +0.000 C 
BRANCH  12  13
ATOM     13  O   UNL     1       5.259   2.046   1.080  0.00  0.00    +0.000 OA
ATOM     14  H   UNL     1       4.979   2.812   0.540  0.00  0.00    +0.000 HD
ENDBRANCH  12  13
BRANCH  12  15
ATOM     15  C   UNL     1       7.434   3.044   1.491  0.00  0.00    +0.000 C 
BRANCH  15  16
ATOM     16  O   UNL     1       8.835   2.799   1.448  0.00  0.00    +0.000 OA
ATOM     17  H   UNL     1       9.029   2.030   2.011  0.00  0.00    +0.000 HD
ENDBRANCH  15  16
ENDBRANCH  12  15
ENDBRANCH   1  12
TORSDOF 10
