REMARK  Name = Galantamine
REMARK  4 active torsions:
REMARK  status: ('A' for Active; 'I' for Inactive)
REMARK    1  A    between atoms: C_4  and  O_5
REMARK    2  A    between atoms: N_11  and  C_12
REMARK    3  A    between atoms: C_18  and  O_19
REMARK    4  A    between atoms: O_19  and  C_20
REMARK                            x       y       z     vdW  Elec       q    Type
REMARK                         _______ _______ _______ _____ _____    ______ ____
ROOT
ATOM      1  C   UNL     1       1.853  -0.132   0.101  0.00  0.00    +0.000 C 
ATOM      2  C   UNL     1       2.404  -0.942  -1.077  0.00  0.00    +0.000 C 
ATOM      3  C   UNL     1       3.888  -0.492  -1.124  0.00  0.00    +0.000 C 
ATOM      4  C   UNL     1       3.724   0.719  -1.924  0.00  0.00    +0.000 C 
ATOM      5  C   UNL     1       2.690   1.404  -1.330  0.00  0.00    +0.000 C 
ATOM      6  C   UNL     1       2.298   1.423   0.280  0.00  0.00    +0.000 C 
ATOM      7  C   UNL     1       2.933   2.835  -0.026  0.00  0.00    +0.000 C 
ATOM      8  C   UNL     1       2.265   3.922   0.758  0.00  0.00    +0.000 C 
ATOM      9  N   UNL     1       3.181   4.219   1.831  0.00  0.00    +0.000 NA
ATOM     10  C   UNL     1       3.143   5.644   2.095  0.00  0.00    +0.000 C 
ATOM     11  C   UNL     1       2.846   3.401   2.977  0.00  0.00    +0.000 C 
ATOM     12  C   UNL     1       3.191   1.926   2.833  0.00  0.00    +0.000 A 
ATOM     13  C   UNL     1       2.978   1.098   1.697  0.00  0.00    +0.000 A 
ATOM     14  C   UNL     1       3.032  -0.269   2.010  0.00  0.00    +0.000 A 
ATOM     15  O   UNL     1       2.326  -1.031   1.140  0.00  0.00    +0.000 OA
ATOM     16  C   UNL     1       3.514  -0.867   3.205  0.00  0.00    +0.000 A 
ATOM     17  C   UNL     1       3.788  -0.025   4.259  0.00  0.00    +0.000 A 
ATOM     18  C   UNL     1       3.580   1.339   4.084  0.00  0.00    +0.000 A 
ENDROOT
BRANCH   3  19
ATOM     19  O   UNL     1       4.668  -1.513  -1.660  0.00  0.00    +0.000 OA
ATOM     20  H   UNL     1       4.553  -2.208  -0.978  0.00  0.00    +0.000 HD
ENDBRANCH   3  19
BRANCH  16  21
ATOM     21  O   UNL     1       3.613  -2.237   3.277  0.00  0.00    +0.000 OA
ATOM     22  C   UNL     1       4.156  -2.789   4.483  0.00  0.00    +0.000 C 
ENDBRANCH  16  21
TORSDOF 2
