REMARK  Name = Gallium citrate Ga-67
REMARK  6 active torsions:
REMARK  status: ('A' for Active; 'I' for Inactive)
REMARK    1  A    between atoms: O_2  and  C_3
REMARK    2  A    between atoms: C_3  and  C_4
REMARK    3  A    between atoms: C_3  and  C_8
REMARK    4  A    between atoms: C_3  and  C_12
REMARK    5  A    between atoms: C_4  and  C_5
REMARK    6  A    between atoms: C_8  and  C_9
REMARK                            x       y       z     vdW  Elec       q    Type
REMARK                         _______ _______ _______ _____ _____    ______ ____
ROOT
ATOM      1 GA   UNL     1       0.979   0.016   0.096  0.00  0.00    +0.000 Ga
ENDROOT
TORSDOF 0
REMARK  Name = Gallium citrate Ga-67
REMARK  6 active torsions:
REMARK  status: ('A' for Active; 'I' for Inactive)
REMARK    1  A    between atoms: O_2  and  C_3
REMARK    2  A    between atoms: C_3  and  C_4
REMARK    3  A    between atoms: C_3  and  C_8
REMARK    4  A    between atoms: C_3  and  C_12
REMARK    5  A    between atoms: C_4  and  C_5
REMARK    6  A    between atoms: C_8  and  C_9
REMARK                            x       y       z     vdW  Elec       q    Type
REMARK                         _______ _______ _______ _____ _____    ______ ____
ROOT
ATOM      1  C   UNL     2       2.365  -0.032   0.077  0.00  0.00    +0.000 C 
ENDROOT
BRANCH   1   2
ATOM      2  C   UNL     2       2.871   1.390  -0.103  0.00  0.00    +0.000 C 
ATOM      3  O   UNL     2       1.948   2.461  -0.238  0.00  0.00    +0.000 OA
ATOM      4  O   UNL     2       4.121   1.621  -0.132  0.00  0.00    +0.000 OA
ENDBRANCH   1   2
BRANCH   1   5
ATOM      5  O   UNL     2       0.945  -0.032   0.077  0.00  0.00    +0.000 OA
ATOM      6  H   UNL     2       0.621  -0.939   0.192  0.00  0.00    +0.000 HD
ENDBRANCH   1   5
BRANCH   1   7
ATOM      7  C   UNL     2       2.871  -0.587   1.398  0.00  0.00    +0.000 C 
BRANCH   7   8
ATOM      8  C   UNL     2       2.365   0.280   2.540  0.00  0.00    +0.000 C 
ATOM      9  O   UNL     2       1.548   1.409   2.266  0.00  0.00    +0.000 OA
ATOM     10  O   UNL     2       2.672  -0.006   3.739  0.00  0.00    +0.000 OA
ENDBRANCH   7   8
ENDBRANCH   1   7
BRANCH   1  11
ATOM     11  C   UNL     2       2.871  -0.898  -1.064  0.00  0.00    +0.000 C 
BRANCH  11  12
ATOM     12  C   UNL     2       2.365  -2.320  -0.885  0.00  0.00    +0.000 C 
ATOM     13  O   UNL     2       1.548  -2.647   0.230  0.00  0.00    +0.000 OA
ATOM     14  O   UNL     2       2.672  -3.216  -1.732  0.00  0.00    +0.000 OA
ENDBRANCH  11  12
ENDBRANCH   1  11
TORSDOF 6
