REMARK  Name = Gallium chloride Ga-67
REMARK  0 active torsions:
REMARK  status: ('A' for Active; 'I' for Inactive)
REMARK                            x       y       z     vdW  Elec       q    Type
REMARK                         _______ _______ _______ _____ _____    ______ ____
ROOT
ATOM      1 CL   UNL     1       0.996  -0.097   0.025  0.00  0.00    +0.000 Cl
ENDROOT
TORSDOF 0
REMARK  Name = Gallium chloride Ga-67
REMARK  0 active torsions:
REMARK  status: ('A' for Active; 'I' for Inactive)
REMARK                            x       y       z     vdW  Elec       q    Type
REMARK                         _______ _______ _______ _____ _____    ______ ____
ROOT
ATOM      1 CL   UNL     1       1.093   0.035   0.013  0.00  0.00    +0.000 Cl
ENDROOT
TORSDOF 0
REMARK  Name = Gallium chloride Ga-67
REMARK  0 active torsions:
REMARK  status: ('A' for Active; 'I' for Inactive)
REMARK                            x       y       z     vdW  Elec       q    Type
REMARK                         _______ _______ _______ _____ _____    ______ ____
ROOT
ATOM      1 CL   UNL     1       0.992  -0.044  -0.089  0.00  0.00    +0.000 Cl
ENDROOT
TORSDOF 0
REMARK  Name = Gallium chloride Ga-67
REMARK  0 active torsions:
REMARK  status: ('A' for Active; 'I' for Inactive)
REMARK                            x       y       z     vdW  Elec       q    Type
REMARK                         _______ _______ _______ _____ _____    ______ ____
ROOT
ATOM      1 GA   UNL     1       0.906   0.032   0.011  0.00  0.00    +0.000 Ga
ENDROOT
TORSDOF 0
