REMARK  Name = Gallium nitrate
REMARK  0 active torsions:
REMARK  status: ('A' for Active; 'I' for Inactive)
REMARK                            x       y       z     vdW  Elec       q    Type
REMARK                         _______ _______ _______ _____ _____    ______ ____
ROOT
ATOM      1 GA   UNL     1       0.929   0.007  -0.070  0.00  0.00    +0.000 Ga
ENDROOT
TORSDOF 0
REMARK  Name = Gallium nitrate
REMARK  0 active torsions:
REMARK  status: ('A' for Active; 'I' for Inactive)
REMARK                            x       y       z     vdW  Elec       q    Type
REMARK                         _______ _______ _______ _____ _____    ______ ____
ROOT
ATOM      1  O   UNL     1       0.929  -0.048  -0.051  0.00  0.00    +0.000 OA
ATOM      2  N   UNL     1       2.299  -0.048  -0.051  0.00  0.00    +0.000 N 
ATOM      3  O   UNL     1       2.984   0.995  -0.617  0.00  0.00    +0.000 OA
ATOM      4  O   UNL     1       2.912  -0.982   0.455  0.00  0.00    +0.000 OA
ENDROOT
TORSDOF 0
REMARK  Name = Gallium nitrate
REMARK  0 active torsions:
REMARK  status: ('A' for Active; 'I' for Inactive)
REMARK                            x       y       z     vdW  Elec       q    Type
REMARK                         _______ _______ _______ _____ _____    ______ ____
ROOT
ATOM      1  O   UNL     1       0.934   0.041  -0.063  0.00  0.00    +0.000 OA
ATOM      2  N   UNL     1       2.304   0.041  -0.063  0.00  0.00    +0.000 N 
ATOM      3  O   UNL     1       2.989  -0.774   0.799  0.00  0.00    +0.000 OA
ATOM      4  O   UNL     1       2.917   0.771  -0.834  0.00  0.00    +0.000 OA
ENDROOT
TORSDOF 0
REMARK  Name = Gallium nitrate
REMARK  0 active torsions:
REMARK  status: ('A' for Active; 'I' for Inactive)
REMARK                            x       y       z     vdW  Elec       q    Type
REMARK                         _______ _______ _______ _____ _____    ______ ____
ROOT
ATOM      1  O   UNL     1       0.961   0.070  -0.059  0.00  0.00    +0.000 OA
ATOM      2  N   UNL     1       2.331   0.070  -0.059  0.00  0.00    +0.000 N 
ATOM      3  O   UNL     1       3.016  -0.786  -0.881  0.00  0.00    +0.000 OA
ATOM      4  O   UNL     1       2.944   0.836   0.676  0.00  0.00    +0.000 OA
ENDROOT
TORSDOF 0
