REMARK  Name = gamma-Aminobutyric acid
REMARK  5 active torsions:
REMARK  status: ('A' for Active; 'I' for Inactive)
REMARK    1  A    between atoms: N_1  and  C_2
REMARK    2  A    between atoms: C_2  and  C_3
REMARK    3  A    between atoms: C_3  and  C_4
REMARK    4  A    between atoms: C_4  and  C_5
REMARK    5  A    between atoms: C_5  and  O_6
REMARK                            x       y       z     vdW  Elec       q    Type
REMARK                         _______ _______ _______ _____ _____    ______ ____
ROOT
ATOM      1  C   UNL     1       2.889  -0.890   1.166  0.00  0.00    +0.000 C 
ENDROOT
BRANCH   1   2
ATOM      2  C   UNL     1       2.393  -0.068  -0.015  0.00  0.00    +0.000 C 
BRANCH   2   3
ATOM      3  N   UNL     1       0.936  -0.083  -0.011  0.00  0.00    +0.000 NA
ATOM      4  H   UNL     1       0.589   0.481  -0.787  0.00  0.00    +0.000 HD
ATOM      5  H   UNL     1       0.583   0.358   0.837  0.00  0.00    +0.000 HD
ENDBRANCH   2   3
ENDBRANCH   1   2
BRANCH   1   6
ATOM      6  C   UNL     1       4.409  -0.937   1.231  0.00  0.00    +0.000 C 
BRANCH   6   7
ATOM      7  C   UNL     1       4.986  -1.735   2.381  0.00  0.00    +0.000 C 
ATOM      8  O   UNL     1       6.196  -1.844   2.544  0.00  0.00    +0.000 OA
BRANCH   7   9
ATOM      9  O   UNL     1       4.118  -2.319   3.227  0.00  0.00    +0.000 OA
ATOM     10  H   UNL     1       3.167  -2.212   3.047  0.00  0.00    +0.000 HD
ENDBRANCH   7   9
ENDBRANCH   6   7
ENDBRANCH   1   6
TORSDOF 5
