REMARK  Name = gamma-Hydroxybutyric acid
REMARK  5 active torsions:
REMARK  status: ('A' for Active; 'I' for Inactive)
REMARK    1  A    between atoms: O_1  and  C_2
REMARK    2  A    between atoms: C_2  and  C_3
REMARK    3  A    between atoms: C_3  and  C_4
REMARK    4  A    between atoms: C_4  and  C_5
REMARK    5  A    between atoms: C_5  and  O_6
REMARK                            x       y       z     vdW  Elec       q    Type
REMARK                         _______ _______ _______ _____ _____    ______ ____
ROOT
ATOM      1  C   UNL     1       4.452  -1.492   0.565  0.00  0.00    +0.000 C 
ENDROOT
BRANCH   1   2
ATOM      2  C   UNL     1       5.026  -2.808   1.042  0.00  0.00    +0.000 C 
ATOM      3  O   UNL     1       6.236  -2.994   1.109  0.00  0.00    +0.000 OA
BRANCH   2   4
ATOM      4  O   UNL     1       4.156  -3.773   1.392  0.00  0.00    +0.000 OA
ATOM      5  H   UNL     1       3.205  -3.576   1.320  0.00  0.00    +0.000 HD
ENDBRANCH   2   4
ENDBRANCH   1   2
BRANCH   1   6
ATOM      6  C   UNL     1       2.936  -1.408   0.534  0.00  0.00    +0.000 C 
BRANCH   6   7
ATOM      7  C   UNL     1       2.446  -0.057   0.045  0.00  0.00    +0.000 C 
BRANCH   7   8
ATOM      8  O   UNL     1       1.026  -0.084   0.054  0.00  0.00    +0.000 OA
ATOM      9  H   UNL     1       0.720   0.784  -0.261  0.00  0.00    +0.000 HD
ENDBRANCH   7   8
ENDBRANCH   6   7
ENDBRANCH   1   6
TORSDOF 5
