REMARK  Name = Ganaxolone
REMARK  6 active torsions:
REMARK  status: ('A' for Active; 'I' for Inactive)
REMARK    1  A    between atoms: C_5  and  C_6
REMARK    2  A    between atoms: C_6  and  C_7
REMARK    3  A    between atoms: C_9  and  C_10
REMARK    4  A    between atoms: C_22  and  C_23
REMARK    5  A    between atoms: C_22  and  O_24
REMARK    6  A    between atoms: C_27  and  C_28
REMARK                            x       y       z     vdW  Elec       q    Type
REMARK                         _______ _______ _______ _____ _____    ______ ____
ROOT
ATOM      1  C   UNL     1       1.713  -0.156  -0.197  0.00  0.00    +0.000 C 
ATOM      2  C   UNL     1       2.154  -0.123  -1.554  0.00  0.00    +0.000 C 
ATOM      3  C   UNL     1       3.310  -0.451  -0.659  0.00  0.00    +0.000 C 
ATOM      4  C   UNL     1       2.775  -0.988   1.226  0.00  0.00    +0.000 C 
ATOM      5  C   UNL     1       2.676  -1.708   0.143  0.00  0.00    +0.000 C 
ATOM      6  C   UNL     1       1.877  -2.885  -0.304  0.00  0.00    +0.000 C 
ATOM      7  C   UNL     1       4.506  -1.601   0.624  0.00  0.00    +0.000 C 
ATOM      8  C   UNL     1       4.816  -0.111   1.411  0.00  0.00    +0.000 C 
ATOM      9  C   UNL     1       4.012   1.255   0.854  0.00  0.00    +0.000 C 
ATOM     10  C   UNL     1       2.400   1.263   0.658  0.00  0.00    +0.000 C 
ATOM     11  C   UNL     1       1.933   2.519  -0.052  0.00  0.00    +0.000 C 
ATOM     12  C   UNL     1       2.442   3.792   0.594  0.00  0.00    +0.000 C 
ATOM     13  C   UNL     1       3.936   3.839   0.782  0.00  0.00    +0.000 C 
ATOM     14  C   UNL     1       4.704   4.056  -0.499  0.00  0.00    +0.000 C 
ATOM     15  C   UNL     1       6.424   4.086  -0.086  0.00  0.00    +0.000 C 
ATOM     16  C   UNL     1       7.821   2.770   0.126  0.00  0.00    +0.000 C 
ATOM     17  C   UNL     1       6.413   3.017  -0.979  0.00  0.00    +0.000 C 
ATOM     18  C   UNL     1       5.882   2.526   0.876  0.00  0.00    +0.000 C 
ATOM     19  C   UNL     1       4.464   2.558   1.406  0.00  0.00    +0.000 C 
ATOM     20  C   UNL     1       4.159   2.511   2.909  0.00  0.00    +0.000 C 
ENDROOT
BRANCH   4  21
ATOM     21  C   UNL     1       2.794  -2.333   2.363  0.00  0.00    +0.000 C 
ATOM     22  C   UNL     1       3.494  -3.692   2.083  0.00  0.00    +0.000 C 
ATOM     23  O   UNL     1       2.273  -2.213   3.481  0.00  0.00    +0.000 OA
ENDBRANCH   4  21
BRANCH  15  24
ATOM     24  O   UNL     1       6.935   5.350   0.030  0.00  0.00    +0.000 OA
ATOM     25  H   UNL     1       6.273   5.980  -0.291  0.00  0.00    +0.000 HD
ENDBRANCH  15  24
TORSDOF 2
