REMARK  Name = Ganciclovir
REMARK  7 active torsions:
REMARK  status: ('A' for Active; 'I' for Inactive)
REMARK    1  A    between atoms: N_8  and  C_9
REMARK    2  A    between atoms: C_9  and  O_10
REMARK    3  A    between atoms: O_10  and  C_11
REMARK    4  A    between atoms: C_11  and  C_12
REMARK    5  A    between atoms: C_11  and  C_14
REMARK    6  A    between atoms: C_12  and  O_13
REMARK    7  A    between atoms: C_14  and  O_15
REMARK                            x       y       z     vdW  Elec       q    Type
REMARK                         _______ _______ _______ _____ _____    ______ ____
ROOT
ATOM      1  N   UNL     1       1.168  -0.012   0.097  0.00  0.00    +0.000 N 
ATOM      2  C   UNL     1       2.522  -0.063   0.105  0.00  0.00    +0.000 A 
ATOM      3  N   UNL     1       3.164  -1.205   0.128  0.00  0.00    +0.000 NA
ATOM      4  C   UNL     1       4.519  -1.064   0.141  0.00  0.00    +0.000 A 
ATOM      5  C   UNL     1       5.250   0.104   0.122  0.00  0.00    +0.000 A 
ATOM      6  N   UNL     1       6.601  -0.132   0.124  0.00  0.00    +0.000 NA
ATOM      7  C   UNL     1       6.701  -1.444   0.143  0.00  0.00    +0.000 A 
ATOM      8  N   UNL     1       5.475  -2.049   0.180  0.00  0.00    +0.000 N 
ATOM      9  C   UNL     1       4.528   1.349   0.104  0.00  0.00    +0.000 A 
ATOM     10  O   UNL     1       5.035   2.471   0.108  0.00  0.00    +0.000 OA
ATOM     11  N   UNL     1       3.156   1.166   0.093  0.00  0.00    +0.000 N 
ATOM     12  H   UNL     1       0.645  -0.878   0.093  0.00  0.00    +0.000 HD
ATOM     13  H   UNL     1       0.641   0.850   0.088  0.00  0.00    +0.000 HD
ATOM     14  H   UNL     1       2.621   2.017   0.085  0.00  0.00    +0.000 HD
ENDROOT
BRANCH   8  15
ATOM     15  C   UNL     1       5.219  -3.472   0.123  0.00  0.00    +0.000 C 
BRANCH  15  16
ATOM     16  O   UNL     1       6.443  -4.225   0.107  0.00  0.00    +0.000 OA
BRANCH  16  17
ATOM     17  C   UNL     1       6.216  -5.647   0.085  0.00  0.00    +0.000 C 
BRANCH  17  18
ATOM     18  C   UNL     1       5.446  -6.113  -1.170  0.00  0.00    +0.000 C 
BRANCH  18  19
ATOM     19  O   UNL     1       4.108  -5.620  -1.230  0.00  0.00    +0.000 OA
ATOM     20  H   UNL     1       3.688  -5.735  -0.363  0.00  0.00    +0.000 HD
ENDBRANCH  18  19
ENDBRANCH  17  18
BRANCH  17  21
ATOM     21  C   UNL     1       7.574  -6.375   0.128  0.00  0.00    +0.000 C 
BRANCH  21  22
ATOM     22  O   UNL     1       7.403  -7.791   0.135  0.00  0.00    +0.000 OA
ATOM     23  H   UNL     1       6.905  -8.033   0.934  0.00  0.00    +0.000 HD
ENDBRANCH  21  22
ENDBRANCH  17  21
ENDBRANCH  16  17
ENDBRANCH  15  16
ENDBRANCH   8  15
TORSDOF 7
