REMARK  Name = Gatifloxacin
REMARK  7 active torsions:
REMARK  status: ('A' for Active; 'I' for Inactive)
REMARK    1  A    between atoms: C_1  and  O_2
REMARK    2  A    between atoms: O_2  and  C_3
REMARK    3  A    between atoms: N_5  and  C_25
REMARK    4  A    between atoms: C_7  and  C_8
REMARK    5  A    between atoms: C_8  and  O_9
REMARK    6  A    between atoms: C_17  and  N_18
REMARK    7  A    between atoms: C_22  and  C_23
REMARK                            x       y       z     vdW  Elec       q    Type
REMARK                         _______ _______ _______ _____ _____    ______ ____
ROOT
ATOM      1  C   UNL     1       3.141   1.189   0.032  0.00  0.00    +0.000 A 
ATOM      2  C   UNL     1       4.281   1.308  -0.842  0.00  0.00    +0.000 A 
ATOM      3  N   UNL     1       4.795   0.249  -1.699  0.00  0.00    +0.000 N 
ATOM      4  C   UNL     1       5.854   0.545  -2.566  0.00  0.00    +0.000 A 
ATOM      5  C   UNL     1       6.542   1.702  -2.651  0.00  0.00    +0.000 A 
ATOM      6  C   UNL     1       6.114   2.792  -1.754  0.00  0.00    +0.000 A 
ATOM      7  O   UNL     1       6.712   3.867  -1.766  0.00  0.00    +0.000 OA
ATOM      8  C   UNL     1       4.945   2.561  -0.867  0.00  0.00    +0.000 A 
ATOM      9  C   UNL     1       4.528   3.625  -0.062  0.00  0.00    +0.000 A 
ATOM     10  C   UNL     1       3.428   3.465   0.773  0.00  0.00    +0.000 A 
ATOM     11  F   UNL     1       3.097   4.492   1.574  0.00  0.00    +0.000 F 
ATOM     12  C   UNL     1       2.713   2.259   0.855  0.00  0.00    +0.000 A 
ENDROOT
BRANCH  12  13
ATOM     13  N   UNL     1       1.674   2.113   1.754  0.00  0.00    +0.000 N 
ATOM     14  C   UNL     1       1.645   1.042   2.762  0.00  0.00    +0.000 C 
ATOM     15  C   UNL     1       1.373   1.673   4.132  0.00  0.00    +0.000 C 
ATOM     16  N   UNL     1       0.126   2.470   4.141  0.00  0.00    +0.000 NA
ATOM     17  C   UNL     1       0.197   3.524   3.094  0.00  0.00    +0.000 C 
ATOM     18  C   UNL     1      -1.110   4.305   3.090  0.00  0.00    +0.000 C 
ATOM     19  C   UNL     1       0.474   2.946   1.687  0.00  0.00    +0.000 C 
ATOM     20  H   UNL     1       0.026   2.910   5.053  0.00  0.00    +0.000 HD
ENDBRANCH  12  13
BRANCH   3  21
ATOM     21  C   UNL     1       3.948  -0.955  -1.916  0.00  0.00    +0.000 C 
ATOM     22  C   UNL     1       3.962  -1.900  -3.069  0.00  0.00    +0.000 C 
ATOM     23  C   UNL     1       4.216  -2.407  -1.669  0.00  0.00    +0.000 C 
ENDBRANCH   3  21
BRANCH   1  25
ATOM     24  C   UNL     1       1.092  -0.035  -0.130  0.00  0.00    +0.000 C 
ATOM     25  O   UNL     1       2.492  -0.025   0.208  0.00  0.00    +0.000 OA
ENDBRANCH   1  25
BRANCH   5  26
ATOM     26  C   UNL     1       7.670   1.857  -3.604  0.00  0.00    +0.000 C 
ATOM     27  O   UNL     1       8.026   0.960  -4.369  0.00  0.00    +0.000 OA
BRANCH  26  28
ATOM     28  O   UNL     1       8.304   3.050  -3.583  0.00  0.00    +0.000 OA
ATOM     29  H   UNL     1       7.944   3.703  -2.932  0.00  0.00    +0.000 HD
ENDBRANCH  26  28
ENDBRANCH   5  26
TORSDOF 5
