REMARK  Name = Gaxilose
REMARK  14 active torsions:
REMARK  status: ('A' for Active; 'I' for Inactive)
REMARK    1  A    between atoms: O_1  and  C_2
REMARK    2  A    between atoms: C_2  and  C_3
REMARK    3  A    between atoms: C_3  and  O_4
REMARK    4  A    between atoms: C_3  and  C_16
REMARK    5  A    between atoms: O_4  and  C_5
REMARK    6  A    between atoms: C_7  and  C_8
REMARK    7  A    between atoms: C_8  and  O_9
REMARK    8  A    between atoms: C_10  and  O_11
REMARK    9  A    between atoms: C_12  and  O_13
REMARK   10  A    between atoms: C_14  and  O_15
REMARK   11  A    between atoms: C_16  and  O_17
REMARK   12  A    between atoms: C_16  and  C_18
REMARK   13  A    between atoms: C_18  and  O_19
REMARK   14  A    between atoms: C_18  and  C_20
REMARK                            x       y       z     vdW  Elec       q    Type
REMARK                         _______ _______ _______ _____ _____    ______ ____
ROOT
ATOM      1  C   UNL     1       6.354  -0.638  -0.323  0.00  0.00    +0.000 C 
ATOM      2  O   UNL     1       5.612  -0.740   0.910  0.00  0.00    +0.000 OA
ATOM      3  C   UNL     1       4.272  -0.241   0.750  0.00  0.00    +0.000 C 
ATOM      4  C   UNL     1       3.525  -1.141  -0.247  0.00  0.00    +0.000 C 
ATOM      5  C   UNL     1       4.218  -1.065  -1.580  0.00  0.00    +0.000 C 
ATOM      6  C   UNL     1       5.649  -1.517  -1.427  0.00  0.00    +0.000 C 
ENDROOT
BRANCH   4   7
ATOM      7  O   UNL     1       3.521  -2.508   0.197  0.00  0.00    +0.000 OA
ATOM      8  H   UNL     1       4.399  -2.716   0.574  0.00  0.00    +0.000 HD
ENDBRANCH   4   7
BRANCH   5   9
ATOM      9  O   UNL     1       3.567  -1.885  -2.550  0.00  0.00    +0.000 OA
ATOM     10  H   UNL     1       3.728  -2.810  -2.280  0.00  0.00    +0.000 HD
ENDBRANCH   5   9
BRANCH   6  11
ATOM     11  O   UNL     1       6.180  -1.515  -2.763  0.00  0.00    +0.000 OA
ATOM     12  H   UNL     1       5.822  -0.738  -3.234  0.00  0.00    +0.000 HD
ENDBRANCH   6  11
BRANCH   1  13
ATOM     13  O   UNL     1       7.707  -1.041  -0.064  0.00  0.00    +0.000 OA
BRANCH  13  14
ATOM     14  C   UNL     1       8.421  -1.409  -1.250  0.00  0.00    +0.000 C 
BRANCH  14  15
ATOM     15  C   UNL     1       8.370  -0.295  -2.321  0.00  0.00    +0.000 C 
BRANCH  15  16
ATOM     16  O   UNL     1       9.166   0.833  -2.019  0.00  0.00    +0.000 OA
ATOM     17  H   UNL     1       8.900   1.501  -2.677  0.00  0.00    +0.000 HD
ENDBRANCH  15  16
ENDBRANCH  14  15
BRANCH  14  18
ATOM     18  C   UNL     1       9.868  -1.812  -0.967  0.00  0.00    +0.000 C 
BRANCH  18  19
ATOM     19  O   UNL     1      10.559  -1.940  -2.229  0.00  0.00    +0.000 OA
ATOM     20  H   UNL     1      10.096  -2.608  -2.768  0.00  0.00    +0.000 HD
ENDBRANCH  18  19
BRANCH  18  21
ATOM     21  C   UNL     1       9.982  -3.156  -0.228  0.00  0.00    +0.000 C 
BRANCH  21  22
ATOM     22  O   UNL     1      11.363  -3.495  -0.082  0.00  0.00    +0.000 OA
ATOM     23  H   UNL     1      11.802  -2.744   0.354  0.00  0.00    +0.000 HD
ENDBRANCH  21  22
BRANCH  21  24
ATOM     24  C   UNL     1       9.305  -3.183   1.139  0.00  0.00    +0.000 C 
ATOM     25  O   UNL     1       9.275  -4.166   1.860  0.00  0.00    +0.000 OA
ENDBRANCH  21  24
ENDBRANCH  18  21
ENDBRANCH  14  18
ENDBRANCH  13  14
ENDBRANCH   1  13
BRANCH   3  26
ATOM     26  C   UNL     1       3.513  -0.211   2.073  0.00  0.00    +0.000 C 
BRANCH  26  27
ATOM     27  O   UNL     1       2.268   0.462   1.887  0.00  0.00    +0.000 OA
ATOM     28  H   UNL     1       1.741  -0.035   1.236  0.00  0.00    +0.000 HD
ENDBRANCH  26  27
ENDBRANCH   3  26
TORSDOF 14
