REMARK  Name = Gefitinib
REMARK  8 active torsions:
REMARK  status: ('A' for Active; 'I' for Inactive)
REMARK    1  A    between atoms: C_1  and  O_2
REMARK    2  A    between atoms: O_2  and  C_3
REMARK    3  A    between atoms: C_4  and  O_5
REMARK    4  A    between atoms: O_5  and  C_6
REMARK    5  A    between atoms: C_6  and  C_7
REMARK    6  A    between atoms: C_7  and  C_8
REMARK    7  A    between atoms: C_8  and  N_9
REMARK    8  A    between atoms: N_18  and  C_19
REMARK                            x       y       z     vdW  Elec       q    Type
REMARK                         _______ _______ _______ _____ _____    ______ ____
ROOT
ATOM      1  C   UNL     1       3.083   0.123  -1.180  0.00  0.00    +0.000 A 
ATOM      2  C   UNL     1       2.691   1.184  -1.987  0.00  0.00    +0.000 A 
ATOM      3  C   UNL     1       3.292   1.343  -3.221  0.00  0.00    +0.000 A 
ATOM      4  C   UNL     1       4.488   0.714  -3.593  0.00  0.00    +0.000 A 
ATOM      5  C   UNL     1       5.243   1.062  -4.740  0.00  0.00    +0.000 A 
ATOM      6  N   UNL     1       4.953   2.171  -5.573  0.00  0.00    +0.000 N 
ATOM      7  N   UNL     1       6.317   0.325  -5.085  0.00  0.00    +0.000 NA
ATOM      8  C   UNL     1       6.632  -0.687  -4.261  0.00  0.00    +0.000 A 
ATOM      9  N   UNL     1       6.018  -1.030  -3.115  0.00  0.00    +0.000 NA
ATOM     10  C   UNL     1       4.935  -0.309  -2.779  0.00  0.00    +0.000 A 
ATOM     11  C   UNL     1       4.220  -0.602  -1.598  0.00  0.00    +0.000 A 
ATOM     12  H   UNL     1       5.505   2.174  -6.421  0.00  0.00    +0.000 HD
ENDROOT
BRANCH   6  13
ATOM     13  C   UNL     1       4.020   3.219  -5.407  0.00  0.00    +0.000 A 
ATOM     14  C   UNL     1       2.910   3.317  -6.264  0.00  0.00    +0.000 A 
ATOM     15  C   UNL     1       1.808   4.107  -5.899  0.00  0.00    +0.000 A 
ATOM     16 CL   UNL     1       0.409   4.136  -6.906  0.00  0.00    +0.000 Cl
ATOM     17  C   UNL     1       1.809   4.802  -4.689  0.00  0.00    +0.000 A 
ATOM     18  F   UNL     1       0.726   5.482  -4.282  0.00  0.00    +0.000 F 
ATOM     19  C   UNL     1       2.922   4.761  -3.859  0.00  0.00    +0.000 A 
ATOM     20  C   UNL     1       4.041   4.009  -4.238  0.00  0.00    +0.000 A 
ENDBRANCH   6  13
BRANCH   1  22
ATOM     21  C   UNL     1       1.232  -0.590   0.229  0.00  0.00    +0.000 C 
ATOM     22  O   UNL     1       2.613  -0.244   0.062  0.00  0.00    +0.000 OA
ENDBRANCH   1  22
BRANCH   2  23
ATOM     23  O   UNL     1       1.848   2.256  -1.785  0.00  0.00    +0.000 OA
BRANCH  23  24
ATOM     24  C   UNL     1       1.074   2.039  -0.654  0.00  0.00    +0.000 C 
BRANCH  24  25
ATOM     25  C   UNL     1      -0.015   3.008  -0.382  0.00  0.00    +0.000 C 
BRANCH  25  26
ATOM     26  C   UNL     1      -0.789   2.700   0.902  0.00  0.00    +0.000 C 
BRANCH  26  27
ATOM     27  N   UNL     1      -2.188   3.190   0.953  0.00  0.00    +0.000 NA
ATOM     28  C   UNL     1      -3.080   2.024   0.763  0.00  0.00    +0.000 C 
ATOM     29  C   UNL     1      -2.851   1.416  -0.633  0.00  0.00    +0.000 C 
ATOM     30  O   UNL     1      -3.130   2.341  -1.699  0.00  0.00    +0.000 OA
ATOM     31  C   UNL     1      -2.608   3.677  -1.550  0.00  0.00    +0.000 C 
ATOM     32  C   UNL     1      -2.589   4.178  -0.086  0.00  0.00    +0.000 C 
ENDBRANCH  26  27
ENDBRANCH  25  26
ENDBRANCH  24  25
ENDBRANCH  23  24
ENDBRANCH   2  23
TORSDOF 7
