REMARK  Name = Gemcitabine
REMARK  4 active torsions:
REMARK  status: ('A' for Active; 'I' for Inactive)
REMARK    1  A    between atoms: N_6  and  C_9
REMARK    2  A    between atoms: C_11  and  C_12
REMARK    3  A    between atoms: C_12  and  O_13
REMARK    4  A    between atoms: C_14  and  O_15
REMARK                            x       y       z     vdW  Elec       q    Type
REMARK                         _______ _______ _______ _____ _____    ______ ____
ROOT
ATOM      1  C   UNL     1       6.642  -0.116   0.230  0.00  0.00    +0.000 C 
ATOM      2  O   UNL     1       7.185  -0.562  -1.042  0.00  0.00    +0.000 OA
ATOM      3  C   UNL     1       8.215  -1.536  -0.757  0.00  0.00    +0.000 C 
ATOM      4  C   UNL     1       7.895  -2.155   0.602  0.00  0.00    +0.000 C 
ATOM      5  C   UNL     1       7.257  -0.988   1.332  0.00  0.00    +0.000 C 
ATOM      6  F   UNL     1       8.228  -0.271   1.973  0.00  0.00    +0.000 F 
ATOM      7  F   UNL     1       6.372  -1.368   2.273  0.00  0.00    +0.000 F 
ENDROOT
BRANCH   1  13
ATOM      8  N   UNL     1       1.138  -0.078  -0.189  0.00  0.00    +0.000 N 
ATOM      9  C   UNL     1       2.500  -0.083  -0.133  0.00  0.00    +0.000 A 
ATOM     10  N   UNL     1       3.102  -1.227  -0.040  0.00  0.00    +0.000 NA
ATOM     11  C   UNL     1       4.473  -1.266  -0.008  0.00  0.00    +0.000 A 
ATOM     12  O   UNL     1       5.069  -2.340  -0.131  0.00  0.00    +0.000 OA
ATOM     13  N   UNL     1       5.178  -0.075   0.170  0.00  0.00    +0.000 N 
ATOM     14  C   UNL     1       4.520   1.138   0.155  0.00  0.00    +0.000 A 
ATOM     15  C   UNL     1       3.224   1.201  -0.146  0.00  0.00    +0.000 A 
ATOM     16  H   UNL     1       0.658  -0.949   0.011  0.00  0.00    +0.000 HD
ATOM     17  H   UNL     1       0.598   0.774  -0.141  0.00  0.00    +0.000 HD
ENDBRANCH   1  13
BRANCH   4  18
ATOM     18  O   UNL     1       9.056  -2.689   1.251  0.00  0.00    +0.000 OA
ATOM     19  H   UNL     1       9.641  -1.955   1.502  0.00  0.00    +0.000 HD
ENDBRANCH   4  18
BRANCH   3  20
ATOM     20  C   UNL     1       8.292  -2.592  -1.867  0.00  0.00    +0.000 C 
BRANCH  20  21
ATOM     21  O   UNL     1       9.339  -3.532  -1.656  0.00  0.00    +0.000 OA
ATOM     22  H   UNL     1      10.178  -3.051  -1.559  0.00  0.00    +0.000 HD
ENDBRANCH  20  21
ENDBRANCH   3  20
TORSDOF 4
