REMARK  Name = Gemeprost
REMARK  19 active torsions:
REMARK  status: ('A' for Active; 'I' for Inactive)
REMARK    1  A    between atoms: C_1  and  C_2
REMARK    2  A    between atoms: C_2  and  C_3
REMARK    3  A    between atoms: C_3  and  C_4
REMARK    4  A    between atoms: C_4  and  C_5
REMARK    5  A    between atoms: C_5  and  C_6
REMARK    6  A    between atoms: C_5  and  C_7
REMARK    7  A    between atoms: C_5  and  C_8
REMARK    8  A    between atoms: C_8  and  O_9
REMARK    9  A    between atoms: C_8  and  C_10
REMARK   10  A    between atoms: C_11  and  C_12
REMARK   11  A    between atoms: C_13  and  O_14
REMARK   12  A    between atoms: C_18  and  C_19
REMARK   13  A    between atoms: C_19  and  C_20
REMARK   14  A    between atoms: C_20  and  C_21
REMARK   15  A    between atoms: C_21  and  C_22
REMARK   16  A    between atoms: C_22  and  C_23
REMARK   17  A    between atoms: C_24  and  C_25
REMARK   18  A    between atoms: C_25  and  O_27
REMARK   19  A    between atoms: O_27  and  C_28
REMARK                            x       y       z     vdW  Elec       q    Type
REMARK                         _______ _______ _______ _____ _____    ______ ____
ROOT
ATOM      1  C   UNL     1       8.853  -5.256  -2.621  0.00  0.00    +0.000 C 
ATOM      2  C   UNL     1       7.973  -6.520  -2.428  0.00  0.00    +0.000 C 
ATOM      3  C   UNL     1       8.888  -7.726  -2.212  0.00  0.00    +0.000 C 
ATOM      4  C   UNL     1      10.256  -7.115  -2.277  0.00  0.00    +0.000 C 
ATOM      5  O   UNL     1      11.281  -7.760  -2.460  0.00  0.00    +0.000 OA
ATOM      6  C   UNL     1      10.221  -5.632  -2.011  0.00  0.00    +0.000 C 
ENDROOT
BRANCH   1   8
ATOM      7  C   UNL     1       9.684  -3.875  -4.596  0.00  0.00    +0.000 C 
ATOM      8  C   UNL     1       8.901  -4.825  -4.052  0.00  0.00    +0.000 C 
BRANCH   7   9
ATOM      9  C   UNL     1       9.773  -3.694  -6.091  0.00  0.00    +0.000 C 
BRANCH   9  10
ATOM     10  C   UNL     1      10.418  -4.910  -6.859  0.00  0.00    +0.000 C 
ATOM     11  C   UNL     1       9.997  -6.274  -6.262  0.00  0.00    +0.000 C 
ATOM     12  C   UNL     1      11.959  -4.859  -6.828  0.00  0.00    +0.000 C 
BRANCH  10  13
ATOM     13  C   UNL     1       9.916  -4.859  -8.325  0.00  0.00    +0.000 C 
BRANCH  13  14
ATOM     14  C   UNL     1      10.375  -6.075  -9.123  0.00  0.00    +0.000 C 
BRANCH  14  16
ATOM     15  C   UNL     1      10.357  -7.305 -11.248  0.00  0.00    +0.000 C 
ATOM     16  C   UNL     1       9.854  -6.061 -10.539  0.00  0.00    +0.000 C 
ENDBRANCH  14  16
ENDBRANCH  13  14
ENDBRANCH  10  13
ENDBRANCH   9  10
BRANCH   9  17
ATOM     17  O   UNL     1      10.486  -2.484  -6.348  0.00  0.00    +0.000 OA
ATOM     18  H   UNL     1      11.394  -2.597  -6.023  0.00  0.00    +0.000 HD
ENDBRANCH   9  17
ENDBRANCH   7   9
ENDBRANCH   1   8
BRANCH   2  19
ATOM     19  O   UNL     1       7.078  -6.338  -1.333  0.00  0.00    +0.000 OA
ATOM     20  H   UNL     1       7.573  -6.121  -0.527  0.00  0.00    +0.000 HD
ENDBRANCH   2  19
BRANCH   6  21
ATOM     21  C   UNL     1      10.239  -5.389  -0.500  0.00  0.00    +0.000 C 
BRANCH  21  22
ATOM     22  C   UNL     1      10.113  -3.898  -0.200  0.00  0.00    +0.000 C 
BRANCH  22  23
ATOM     23  C   UNL     1      10.024  -3.635   1.293  0.00  0.00    +0.000 C 
BRANCH  23  24
ATOM     24  C   UNL     1       9.893  -2.132   1.558  0.00  0.00    +0.000 C 
BRANCH  24  25
ATOM     25  C   UNL     1       9.818  -1.840   3.028  0.00  0.00    +0.000 C 
ATOM     26  C   UNL     1       9.713  -0.604   3.548  0.00  0.00    +0.000 C 
BRANCH  26  27
ATOM     27  C   UNL     1       9.653  -0.430   5.019  0.00  0.00    +0.000 C 
ATOM     28  O   UNL     1       9.691  -1.355   5.825  0.00  0.00    +0.000 OA
BRANCH  27  29
ATOM     29  O   UNL     1       9.551   0.886   5.330  0.00  0.00    +0.000 OA
ATOM     30  C   UNL     1       9.488   1.140   6.741  0.00  0.00    +0.000 C 
ENDBRANCH  27  29
ENDBRANCH  26  27
ENDBRANCH  24  25
ENDBRANCH  23  24
ENDBRANCH  22  23
ENDBRANCH  21  22
ENDBRANCH   6  21
TORSDOF 15
