REMARK  Name = Gemfibrozil
REMARK  11 active torsions:
REMARK  status: ('A' for Active; 'I' for Inactive)
REMARK    1  A    between atoms: C_1  and  C_2
REMARK    2  A    between atoms: C_4  and  O_5
REMARK    3  A    between atoms: O_5  and  C_6
REMARK    4  A    between atoms: C_6  and  C_7
REMARK    5  A    between atoms: C_7  and  C_8
REMARK    6  A    between atoms: C_8  and  C_9
REMARK    7  A    between atoms: C_9  and  C_10
REMARK    8  A    between atoms: C_9  and  C_11
REMARK    9  A    between atoms: C_9  and  C_12
REMARK   10  A    between atoms: C_12  and  O_13
REMARK   11  A    between atoms: C_15  and  C_16
REMARK                            x       y       z     vdW  Elec       q    Type
REMARK                         _______ _______ _______ _____ _____    ______ ____
ROOT
ATOM      1  C   UNL     1      -2.681  -2.543  -0.015  0.00  0.00    +0.000 C 
ENDROOT
BRANCH   1   2
ATOM      2  O   UNL     1      -1.274  -2.473  -0.008  0.00  0.00    +0.000 OA
BRANCH   2   6
ATOM      3  C   UNL     1       2.889  -0.021   0.005  0.00  0.00    +0.000 C 
ATOM      4  C   UNL     1       1.390  -0.012   0.002  0.00  0.00    +0.000 A 
ATOM      5  C   UNL     1       0.648  -1.200   0.002  0.00  0.00    +0.000 A 
ATOM      6  C   UNL     1      -0.764  -1.196  -0.002  0.00  0.00    +0.000 A 
ATOM      7  C   UNL     1      -1.457   0.032  -0.000  0.00  0.00    +0.000 A 
ATOM      8  C   UNL     1      -2.944   0.293   0.000  0.00  0.00    +0.000 C 
ATOM      9  C   UNL     1      -0.689   1.215   0.001  0.00  0.00    +0.000 A 
ATOM     10  C   UNL     1       0.705   1.199   0.001  0.00  0.00    +0.000 A 
ENDBRANCH   2   6
ENDBRANCH   1   2
BRANCH   1  11
ATOM     11  C   UNL     1      -3.192  -3.948  -0.027  0.00  0.00    +0.000 C 
BRANCH  11  12
ATOM     12  C   UNL     1      -4.731  -3.937  -0.033  0.00  0.00    +0.000 C 
BRANCH  12  13
ATOM     13  C   UNL     1      -5.325  -5.355  -0.043  0.00  0.00    +0.000 C 
ATOM     14  C   UNL     1      -4.835  -6.093  -1.303  0.00  0.00    +0.000 C 
ATOM     15  C   UNL     1      -4.844  -6.107   1.212  0.00  0.00    +0.000 C 
BRANCH  13  16
ATOM     16  C   UNL     1      -6.860  -5.405  -0.049  0.00  0.00    +0.000 C 
ATOM     17  O   UNL     1      -7.482  -6.466  -0.057  0.00  0.00    +0.000 OA
BRANCH  16  18
ATOM     18  O   UNL     1      -7.528  -4.236  -0.045  0.00  0.00    +0.000 OA
ATOM     19  H   UNL     1      -7.018  -3.408  -0.038  0.00  0.00    +0.000 HD
ENDBRANCH  16  18
ENDBRANCH  13  16
ENDBRANCH  12  13
ENDBRANCH  11  12
ENDBRANCH   1  11
TORSDOF 7
