REMARK  Name = Gemifloxacin
REMARK  7 active torsions:
REMARK  status: ('A' for Active; 'I' for Inactive)
REMARK    1  A    between atoms: C_1  and  O_2
REMARK    2  A    between atoms: O_2  and  N_3
REMARK    3  A    between atoms: C_8  and  C_9
REMARK    4  A    between atoms: C_9  and  N_10
REMARK    5  A    between atoms: C_20  and  C_26
REMARK    6  A    between atoms: N_22  and  C_23
REMARK    7  A    between atoms: C_26  and  O_27
REMARK                            x       y       z     vdW  Elec       q    Type
REMARK                         _______ _______ _______ _____ _____    ______ ____
ROOT
ATOM      1  N   UNL     1       3.267   0.514  -0.994  0.00  0.00    +0.000 NA
ATOM      2  C   UNL     1       4.566   0.585  -0.911  0.00  0.00    +0.000 C 
ATOM      3  C   UNL     1       5.477   0.075   0.198  0.00  0.00    +0.000 C 
ATOM      4  N   UNL     1       6.612   0.992   0.086  0.00  0.00    +0.000 N 
ATOM      5  C   UNL     1       6.750   1.482  -1.289  0.00  0.00    +0.000 C 
ATOM      6  C   UNL     1       5.412   1.189  -2.027  0.00  0.00    +0.000 C 
ATOM      7  C   UNL     1       7.314   1.490   1.169  0.00  0.00    +0.000 A 
ATOM      8  N   UNL     1       8.055   0.634   1.941  0.00  0.00    +0.000 NA
ATOM      9  C   UNL     1       8.833   1.126   2.974  0.00  0.00    +0.000 A 
ATOM     10  C   UNL     1       8.849   2.488   3.286  0.00  0.00    +0.000 A 
ATOM     11  C   UNL     1       8.073   3.362   2.533  0.00  0.00    +0.000 A 
ATOM     12  C   UNL     1       7.320   2.862   1.473  0.00  0.00    +0.000 A 
ATOM     13  F   UNL     1       6.575   3.731   0.772  0.00  0.00    +0.000 F 
ATOM     14  C   UNL     1       9.676   3.022   4.398  0.00  0.00    +0.000 A 
ATOM     15  O   UNL     1       9.634   4.226   4.628  0.00  0.00    +0.000 OA
ATOM     16  C   UNL     1      10.522   2.088   5.193  0.00  0.00    +0.000 A 
ATOM     17  C   UNL     1      10.441   0.806   4.804  0.00  0.00    +0.000 A 
ATOM     18  N   UNL     1       9.683   0.273   3.767  0.00  0.00    +0.000 N 
ENDROOT
BRANCH  18  19
ATOM     19  C   UNL     1       9.744  -1.179   3.472  0.00  0.00    +0.000 C 
ATOM     20  C   UNL     1      10.751  -2.130   4.083  0.00  0.00    +0.000 C 
ATOM     21  C   UNL     1       9.307  -2.203   4.491  0.00  0.00    +0.000 C 
ENDBRANCH  18  19
BRANCH   1  23
ATOM     22  C   UNL     1       1.237   0.041   0.011  0.00  0.00    +0.000 C 
ATOM     23  O   UNL     1       2.664  -0.045   0.143  0.00  0.00    +0.000 OA
ENDBRANCH   1  23
BRANCH  16  24
ATOM     24  C   UNL     1      11.367   2.579   6.319  0.00  0.00    +0.000 C 
ATOM     25  O   UNL     1      11.418   3.756   6.661  0.00  0.00    +0.000 OA
BRANCH  24  26
ATOM     26  O   UNL     1      12.112   1.672   6.987  0.00  0.00    +0.000 OA
ATOM     27  H   UNL     1      12.093   0.735   6.739  0.00  0.00    +0.000 HD
ENDBRANCH  24  26
ENDBRANCH  16  24
BRANCH   6  28
ATOM     28  C   UNL     1       4.837   2.449  -2.671  0.00  0.00    +0.000 C 
BRANCH  28  29
ATOM     29  N   UNL     1       3.607   2.191  -3.410  0.00  0.00    +0.000 NA
ATOM     30  H   UNL     1       3.742   1.502  -4.145  0.00  0.00    +0.000 HD
ATOM     31  H   UNL     1       3.232   3.041  -3.821  0.00  0.00    +0.000 HD
ENDBRANCH  28  29
ENDBRANCH   6  28
TORSDOF 6
