REMARK  Name = Gentian violet cation
REMARK  10 active torsions:
REMARK  status: ('A' for Active; 'I' for Inactive)
REMARK    1  A    between atoms: C_1  and  N_2
REMARK    2  A    between atoms: N_2  and  C_3
REMARK    3  A    between atoms: N_2  and  C_4
REMARK    4  A    between atoms: C_7  and  C_10
REMARK    5  A    between atoms: C_10  and  C_11
REMARK    6  A    between atoms: C_14  and  N_17
REMARK    7  A    between atoms: N_17  and  C_18
REMARK    8  A    between atoms: N_17  and  C_19
REMARK    9  A    between atoms: N_26  and  C_27
REMARK   10  A    between atoms: N_26  and  C_28
REMARK                            x       y       z     vdW  Elec       q    Type
REMARK                         _______ _______ _______ _____ _____    ______ ____
ROOT
ATOM      1  C   UNL     1       5.777  -2.996   3.652  0.00  0.00    +0.000 C 
ATOM      2  C   UNL     1       5.399  -4.188   4.210  0.00  0.00    +0.000 C 
ATOM      3  C   UNL     1       4.116  -4.822   3.957  0.00  0.00    +0.000 C 
ATOM      4  C   UNL     1       3.962  -6.138   3.933  0.00  0.00    +0.000 C 
ATOM      5  C   UNL     1       5.040  -7.002   4.498  0.00  0.00    +0.000 C 
ATOM      6  C   UNL     1       6.056  -6.249   5.323  0.00  0.00    +0.000 C 
ATOM      7  C   UNL     1       6.200  -4.926   5.186  0.00  0.00    +0.000 C 
ATOM      8  N   UNL     1       5.027  -8.290   4.368  0.00  0.00    +0.000 N 
ATOM      9  C   UNL     1       4.005  -9.036   3.554  0.00  0.00    +0.000 C 
ATOM     10  C   UNL     1       6.031  -9.188   5.018  0.00  0.00    +0.000 C 
ENDROOT
BRANCH   1  14
ATOM     11  C   UNL     1       3.243  -0.610   0.996  0.00  0.00    +0.000 A 
ATOM     12  C   UNL     1       4.461  -0.136   1.490  0.00  0.00    +0.000 A 
ATOM     13  C   UNL     1       5.304  -0.933   2.269  0.00  0.00    +0.000 A 
ATOM     14  C   UNL     1       4.937  -2.225   2.647  0.00  0.00    +0.000 A 
ATOM     15  C   UNL     1       3.765  -2.702   2.049  0.00  0.00    +0.000 A 
ATOM     16  C   UNL     1       2.881  -1.897   1.343  0.00  0.00    +0.000 A 
BRANCH  11  18
ATOM     17  C   UNL     1       1.058  -0.019   0.021  0.00  0.00    +0.000 C 
ATOM     18  N   UNL     1       2.498   0.142   0.107  0.00  0.00    +0.000 N 
ATOM     19  C   UNL     1       3.234   0.690  -1.025  0.00  0.00    +0.000 C 
ENDBRANCH  11  18
ENDBRANCH   1  14
BRANCH   1  20
ATOM     20  C   UNL     1       7.049  -2.398   4.183  0.00  0.00    +0.000 A 
ATOM     21  C   UNL     1       8.277  -3.037   4.048  0.00  0.00    +0.000 A 
ATOM     22  C   UNL     1       9.404  -2.547   4.718  0.00  0.00    +0.000 A 
ATOM     23  C   UNL     1       9.413  -1.318   5.400  0.00  0.00    +0.000 A 
ATOM     24  C   UNL     1       8.166  -0.678   5.487  0.00  0.00    +0.000 A 
ATOM     25  C   UNL     1       7.004  -1.213   4.919  0.00  0.00    +0.000 A 
BRANCH  23  26
ATOM     26  N   UNL     1      10.565  -0.792   5.963  0.00  0.00    +0.000 N 
ATOM     27  C   UNL     1      11.881  -1.414   5.797  0.00  0.00    +0.000 C 
ATOM     28  C   UNL     1      10.619   0.562   6.524  0.00  0.00    +0.000 C 
ENDBRANCH  23  26
ENDBRANCH   1  20
TORSDOF 4
