REMARK  Name = Geraniol
REMARK  8 active torsions:
REMARK  status: ('A' for Active; 'I' for Inactive)
REMARK    1  A    between atoms: C_1  and  C_2
REMARK    2  A    between atoms: C_2  and  C_3
REMARK    3  A    between atoms: C_4  and  C_5
REMARK    4  A    between atoms: C_5  and  C_6
REMARK    5  A    between atoms: C_6  and  C_7
REMARK    6  A    between atoms: C_7  and  C_8
REMARK    7  A    between atoms: C_9  and  C_10
REMARK    8  A    between atoms: C_10  and  O_11
REMARK                            x       y       z     vdW  Elec       q    Type
REMARK                         _______ _______ _______ _____ _____    ______ ____
ROOT
ATOM      1  C   UNL     1       5.330  -0.764   2.439  0.00  0.00    +0.000 C 
ENDROOT
BRANCH   1   2
ATOM      2  C   UNL     1       6.849  -0.757   2.434  0.00  0.00    +0.000 C 
ATOM      3  C   UNL     1       7.613  -0.400   1.178  0.00  0.00    +0.000 C 
ATOM      4  C   UNL     1       7.528  -1.083   3.553  0.00  0.00    +0.000 C 
BRANCH   4   5
ATOM      5  C   UNL     1       9.023  -1.108   3.618  0.00  0.00    +0.000 C 
BRANCH   5   6
ATOM      6  O   UNL     1       9.438  -1.493   4.915  0.00  0.00    +0.000 OA
ATOM      7  H   UNL     1       9.140  -0.796   5.521  0.00  0.00    +0.000 HD
ENDBRANCH   5   6
ENDBRANCH   4   5
ENDBRANCH   1   2
BRANCH   1   8
ATOM      8  C   UNL     1       4.718  -0.379   1.095  0.00  0.00    +0.000 C 
BRANCH   8  12
ATOM      9  C   UNL     1       1.059  -0.041  -0.083  0.00  0.00    +0.000 C 
ATOM     10  C   UNL     1       2.556  -0.043  -0.074  0.00  0.00    +0.000 C 
ATOM     11  C   UNL     1       3.276   0.322  -1.346  0.00  0.00    +0.000 C 
ATOM     12  C   UNL     1       3.225  -0.367   1.052  0.00  0.00    +0.000 C 
ENDBRANCH   8  12
ENDBRANCH   1   8
TORSDOF 5
