REMARK  Name = Gestrinone
REMARK  4 active torsions:
REMARK  status: ('A' for Active; 'I' for Inactive)
REMARK    1  A    between atoms: C_5  and  O_6
REMARK    2  A    between atoms: C_5  and  C_7
REMARK    3  A    between atoms: C_9  and  C_10
REMARK    4  A    between atoms: C_10  and  C_11
REMARK                            x       y       z     vdW  Elec       q    Type
REMARK                         _______ _______ _______ _____ _____    ______ ____
ROOT
ATOM      1  C   UNL     1       1.772  -0.068  -0.238  0.00  0.00    +0.000 C 
ATOM      2  C   UNL     1       2.026   1.104   0.665  0.00  0.00    +0.000 C 
ATOM      3  C   UNL     1       2.946   0.203   1.424  0.00  0.00    +0.000 C 
ATOM      4  C   UNL     1       1.879  -1.381   1.977  0.00  0.00    +0.000 C 
ATOM      5  C   UNL     1       2.496  -1.476   0.518  0.00  0.00    +0.000 C 
ATOM      6  C   UNL     1       2.174  -2.632  -0.306  0.00  0.00    +0.000 C 
ATOM      7  C   UNL     1       1.984  -2.450  -1.607  0.00  0.00    +0.000 C 
ATOM      8  C   UNL     1       1.892  -1.146  -2.299  0.00  0.00    +0.000 C 
ATOM      9  C   UNL     1       1.330  -1.066  -3.508  0.00  0.00    +0.000 C 
ATOM     10  C   UNL     1       0.914  -2.348  -4.087  0.00  0.00    +0.000 C 
ATOM     11  C   UNL     1       0.371  -2.184  -5.446  0.00  0.00    +0.000 C 
ATOM     12  C   UNL     1       0.530  -0.963  -6.244  0.00  0.00    +0.000 C 
ATOM     13  O   UNL     1       0.151  -0.967  -7.425  0.00  0.00    +0.000 OA
ATOM     14  C   UNL     1       0.965   0.249  -5.569  0.00  0.00    +0.000 C 
ATOM     15  C   UNL     1       1.150   0.187  -4.238  0.00  0.00    +0.000 C 
ATOM     16  C   UNL     1       1.058   1.404  -3.362  0.00  0.00    +0.000 C 
ATOM     17  C   UNL     1       2.168   1.454  -2.343  0.00  0.00    +0.000 C 
ATOM     18  C   UNL     1       2.360   0.098  -1.619  0.00  0.00    +0.000 C 
ENDROOT
BRANCH   4  19
ATOM     19  O   UNL     1       2.580  -2.396   2.699  0.00  0.00    +0.000 OA
ATOM     20  H   UNL     1       1.993  -2.644   3.434  0.00  0.00    +0.000 HD
ENDBRANCH   4  19
BRANCH   4  21
ATOM     21  C   UNL     1       2.131  -0.172   2.863  0.00  0.00    +0.000 C 
ATOM     22  C   UNL     1       2.346   0.865   3.624  0.00  0.00    +0.000 C 
ENDBRANCH   4  21
BRANCH   5  23
ATOM     23  C   UNL     1       4.257  -1.686   0.663  0.00  0.00    +0.000 C 
ATOM     24  C   UNL     1       5.133  -1.222  -0.514  0.00  0.00    +0.000 C 
ENDBRANCH   5  23
TORSDOF 3
