REMARK  Name = Gestonorone caproate
REMARK  10 active torsions:
REMARK  status: ('A' for Active; 'I' for Inactive)
REMARK    1  A    between atoms: C_5  and  O_6
REMARK    2  A    between atoms: C_5  and  C_14
REMARK    3  A    between atoms: O_6  and  C_7
REMARK    4  A    between atoms: C_7  and  C_9
REMARK    5  A    between atoms: C_9  and  C_10
REMARK    6  A    between atoms: C_10  and  C_11
REMARK    7  A    between atoms: C_11  and  C_12
REMARK    8  A    between atoms: C_12  and  C_13
REMARK    9  A    between atoms: C_14  and  C_15
REMARK   10  A    between atoms: C_17  and  C_18
REMARK                            x       y       z     vdW  Elec       q    Type
REMARK                         _______ _______ _______ _____ _____    ______ ____
ROOT
ATOM      1  C   UNL     1       1.817  -0.007  -0.229  0.00  0.00    +0.000 C 
ATOM      2  C   UNL     1       2.248   0.011  -1.580  0.00  0.00    +0.000 C 
ATOM      3  C   UNL     1       3.263  -0.343  -0.580  0.00  0.00    +0.000 C 
ATOM      4  C   UNL     1       2.494  -0.853   1.293  0.00  0.00    +0.000 C 
ATOM      5  C   UNL     1       2.705  -1.632   0.200  0.00  0.00    +0.000 C 
ATOM      6  C   UNL     1       1.926  -2.795  -0.250  0.00  0.00    +0.000 C 
ATOM      7  C   UNL     1       4.452  -1.518   0.748  0.00  0.00    +0.000 C 
ATOM      8  C   UNL     1       4.701  -0.135   1.495  0.00  0.00    +0.000 C 
ATOM      9  C   UNL     1       4.040   1.245   1.015  0.00  0.00    +0.000 C 
ATOM     10  C   UNL     1       4.399   2.349   1.915  0.00  0.00    +0.000 C 
ATOM     11  C   UNL     1       5.768   2.125   2.084  0.00  0.00    +0.000 C 
ATOM     12  C   UNL     1       6.956   1.574   2.561  0.00  0.00    +0.000 C 
ATOM     13  C   UNL     1       7.457   2.923   1.651  0.00  0.00    +0.000 C 
ATOM     14  O   UNL     1       8.598   2.933   1.349  0.00  0.00    +0.000 OA
ATOM     15  C   UNL     1       6.018   4.001   0.919  0.00  0.00    +0.000 C 
ATOM     16  C   UNL     1       4.619   3.626   1.071  0.00  0.00    +0.000 C 
ATOM     17  C   UNL     1       3.070   3.931   0.719  0.00  0.00    +0.000 C 
ATOM     18  C   UNL     1       2.249   2.737   0.066  0.00  0.00    +0.000 C 
ATOM     19  C   UNL     1       2.531   1.389   0.723  0.00  0.00    +0.000 C 
ENDROOT
BRANCH   4  20
ATOM     20  C   UNL     1       2.738  -2.140   2.501  0.00  0.00    +0.000 C 
ATOM     21  C   UNL     1       3.469  -3.519   2.232  0.00  0.00    +0.000 C 
ATOM     22  O   UNL     1       2.285  -2.013   3.653  0.00  0.00    +0.000 OA
ENDBRANCH   4  20
BRANCH   4  23
ATOM     23  O   UNL     1       0.865  -0.999   1.583  0.00  0.00    +0.000 OA
BRANCH  23  24
ATOM     24  C   UNL     1      -0.014   0.036   1.760  0.00  0.00    +0.000 C 
ATOM     25  O   UNL     1       0.303   1.219   1.818  0.00  0.00    +0.000 OA
BRANCH  24  26
ATOM     26  C   UNL     1      -1.493  -0.231   1.677  0.00  0.00    +0.000 C 
BRANCH  26  27
ATOM     27  C   UNL     1      -2.085   1.016   0.951  0.00  0.00    +0.000 C 
BRANCH  27  28
ATOM     28  C   UNL     1      -3.596   1.065   0.931  0.00  0.00    +0.000 C 
BRANCH  28  29
ATOM     29  C   UNL     1      -4.091   2.333   0.229  0.00  0.00    +0.000 C 
ATOM     30  C   UNL     1      -5.607   2.360   0.221  0.00  0.00    +0.000 C 
ENDBRANCH  28  29
ENDBRANCH  27  28
ENDBRANCH  26  27
ENDBRANCH  24  26
ENDBRANCH  23  24
ENDBRANCH   4  23
TORSDOF 7
