REMARK  Name = Gilteritinib
REMARK  11 active torsions:
REMARK  status: ('A' for Active; 'I' for Inactive)
REMARK    1  A    between atoms: C_1  and  C_2
REMARK    2  A    between atoms: C_2  and  C_3
REMARK    3  A    between atoms: C_4  and  N_5
REMARK    4  A    between atoms: N_5  and  C_6
REMARK    5  A    between atoms: N_14  and  C_15
REMARK    6  A    between atoms: C_18  and  N_19
REMARK    7  A    between atoms: C_22  and  N_25
REMARK    8  A    between atoms: N_28  and  C_29
REMARK    9  A    between atoms: C_32  and  O_33
REMARK   10  A    between atoms: O_33  and  C_34
REMARK   11  A    between atoms: C_36  and  C_38
REMARK                            x       y       z     vdW  Elec       q    Type
REMARK                         _______ _______ _______ _____ _____    ______ ____
ROOT
ATOM      1  C   UNL     1       2.934   0.464  -1.275  0.00  0.00    +0.000 A 
ATOM      2  C   UNL     1       3.358  -0.549  -2.128  0.00  0.00    +0.000 A 
ATOM      3  N   UNL     1       3.694  -0.215  -3.381  0.00  0.00    +0.000 NA
ATOM      4  C   UNL     1       3.653   1.071  -3.804  0.00  0.00    +0.000 A 
ATOM      5  N   UNL     1       4.198   1.327  -5.052  0.00  0.00    +0.000 N 
ATOM      6  C   UNL     1       3.254   2.080  -2.942  0.00  0.00    +0.000 A 
ATOM      7  N   UNL     1       2.876   1.779  -1.662  0.00  0.00    +0.000 NA
ATOM      8  H   UNL     1       3.724   2.039  -5.574  0.00  0.00    +0.000 HD
ENDROOT
BRANCH   5   9
ATOM      9  C   UNL     1       4.598   0.366  -5.979  0.00  0.00    +0.000 A 
ATOM     10  C   UNL     1       5.853   0.597  -6.489  0.00  0.00    +0.000 A 
ATOM     11  C   UNL     1       6.238  -0.122  -7.562  0.00  0.00    +0.000 A 
ATOM     12  C   UNL     1       5.414  -1.110  -8.133  0.00  0.00    +0.000 A 
ATOM     13  C   UNL     1       4.147  -1.405  -7.584  0.00  0.00    +0.000 A 
ATOM     14  C   UNL     1       3.732  -0.596  -6.527  0.00  0.00    +0.000 A 
BRANCH  12  15
ATOM     15  N   UNL     1       6.107  -1.690  -9.190  0.00  0.00    +0.000 N 
ATOM     16  C   UNL     1       7.226  -2.410  -8.575  0.00  0.00    +0.000 C 
ATOM     17  C   UNL     1       8.389  -2.635  -9.593  0.00  0.00    +0.000 C 
ATOM     18  C   UNL     1       7.949  -3.352 -10.922  0.00  0.00    +0.000 C 
ATOM     19  C   UNL     1       6.599  -2.506 -11.381  0.00  0.00    +0.000 C 
ATOM     20  C   UNL     1       5.441  -2.346 -10.314  0.00  0.00    +0.000 C 
BRANCH  18  21
ATOM     21  N   UNL     1       7.609  -4.842 -10.841  0.00  0.00    +0.000 NA
ATOM     22  C   UNL     1       6.760  -4.978  -9.682  0.00  0.00    +0.000 C 
ATOM     23  C   UNL     1       7.475  -5.079  -8.343  0.00  0.00    +0.000 C 
ATOM     24  N   UNL     1       7.788  -6.443  -8.139  0.00  0.00    +0.000 NA
ATOM     25  C   UNL     1       8.182  -6.444  -6.730  0.00  0.00    +0.000 C 
ATOM     26  C   UNL     1       8.799  -6.664  -9.208  0.00  0.00    +0.000 C 
ATOM     27  C   UNL     1       8.341  -6.138 -10.692  0.00  0.00    +0.000 C 
ENDBRANCH  18  21
ENDBRANCH  12  15
BRANCH  13  28
ATOM     28  O   UNL     1       3.405  -2.468  -8.047  0.00  0.00    +0.000 OA
ATOM     29  C   UNL     1       2.048  -2.561  -7.593  0.00  0.00    +0.000 C 
ENDBRANCH  13  28
ENDBRANCH   5   9
BRANCH   6  30
ATOM     30  C   UNL     1       3.190   3.533  -3.344  0.00  0.00    +0.000 C 
ATOM     31  N   UNL     1       3.510   4.029  -4.591  0.00  0.00    +0.000 N 
ATOM     32  O   UNL     1       2.799   4.395  -2.513  0.00  0.00    +0.000 OA
ATOM     33  H   UNL     1       4.023   3.614  -5.355  0.00  0.00    +0.000 HD
ATOM     34  H   UNL     1       3.433   5.035  -4.686  0.00  0.00    +0.000 HD
ENDBRANCH   6  30
BRANCH   1  36
ATOM     35  C   UNL     1       0.909   0.072   0.081  0.00  0.00    +0.000 C 
ATOM     36  C   UNL     1       2.425   0.131   0.100  0.00  0.00    +0.000 C 
ENDBRANCH   1  36
BRANCH   2  37
ATOM     37  N   UNL     1       3.373  -1.890  -1.784  0.00  0.00    +0.000 N 
ATOM     38  H   UNL     1       3.285  -2.165  -0.819  0.00  0.00    +0.000 HD
BRANCH  37  39
ATOM     39  C   UNL     1       3.924  -2.898  -2.685  0.00  0.00    +0.000 C 
ATOM     40  C   UNL     1       5.382  -2.625  -3.073  0.00  0.00    +0.000 C 
ATOM     41  C   UNL     1       5.838  -3.543  -4.192  0.00  0.00    +0.000 C 
ATOM     42  O   UNL     1       4.914  -3.557  -5.271  0.00  0.00    +0.000 OA
ATOM     43  C   UNL     1       3.632  -4.028  -4.875  0.00  0.00    +0.000 C 
ATOM     44  C   UNL     1       2.992  -3.090  -3.876  0.00  0.00    +0.000 C 
ENDBRANCH  37  39
ENDBRANCH   2  37
TORSDOF 8
