REMARK  Name = Gimeracil
REMARK  1 active torsions:
REMARK  status: ('A' for Active; 'I' for Inactive)
REMARK    1  A    between atoms: O_1  and  C_2
REMARK                            x       y       z     vdW  Elec       q    Type
REMARK                         _______ _______ _______ _____ _____    ______ ____
ROOT
ATOM      1  C   UNL     1       2.428  -0.006   0.070  0.00  0.00    +0.000 A 
ATOM      2  C   UNL     1       3.073   1.171   0.090  0.00  0.00    +0.000 A 
ATOM      3  C   UNL     1       4.541   1.198  -0.130  0.00  0.00    +0.000 A 
ATOM      4  O   UNL     1       5.137   2.260  -0.290  0.00  0.00    +0.000 OA
ATOM      5  N   UNL     1       5.170  -0.021  -0.157  0.00  0.00    +0.000 N 
ATOM      6  C   UNL     1       4.506  -1.221  -0.071  0.00  0.00    +0.000 A 
ATOM      7  C   UNL     1       3.167  -1.256  -0.010  0.00  0.00    +0.000 A 
ATOM      8 CL   UNL     1       2.340  -2.769  -0.008  0.00  0.00    +0.000 Cl
ATOM      9  H   UNL     1       6.171  -0.002  -0.315  0.00  0.00    +0.000 HD
ENDROOT
BRANCH   1  10
ATOM     10  O   UNL     1       1.056  -0.108   0.160  0.00  0.00    +0.000 OA
ATOM     11  H   UNL     1       0.666   0.782   0.128  0.00  0.00    +0.000 HD
ENDBRANCH   1  10
TORSDOF 1
