REMARK  Name = Glasdegib
REMARK  5 active torsions:
REMARK  status: ('A' for Active; 'I' for Inactive)
REMARK    1  A    between atoms: C_1  and  N_2
REMARK    2  A    between atoms: C_5  and  N_17
REMARK    3  A    between atoms: C_7  and  C_8
REMARK    4  A    between atoms: N_20  and  C_21
REMARK    5  A    between atoms: C_24  and  C_27
REMARK                            x       y       z     vdW  Elec       q    Type
REMARK                         _______ _______ _______ _____ _____    ______ ____
ROOT
ATOM      1  C   UNL     1      -2.394   0.019  -0.094  0.00  0.00    +0.000 C 
ATOM      2  N   UNL     1      -0.978   0.013   0.298  0.00  0.00    +0.000 NA
ATOM      3  C   UNL     1      -0.332   1.261  -0.096  0.00  0.00    +0.000 C 
ATOM      4  C   UNL     1       1.149   1.272   0.276  0.00  0.00    +0.000 C 
ATOM      5  C   UNL     1       1.957   0.043  -0.187  0.00  0.00    +0.000 C 
ATOM      6  C   UNL     1       1.195  -1.227   0.232  0.00  0.00    +0.000 C 
ATOM      7  C   UNL     1      -0.284  -1.186  -0.234  0.00  0.00    +0.000 C 
ENDROOT
BRANCH   7   8
ATOM      8  C   UNL     1      -0.385  -1.306  -1.739  0.00  0.00    +0.000 A 
ATOM      9  N   UNL     1      -1.004  -2.243  -2.429  0.00  0.00    +0.000 NA
ATOM     10  C   UNL     1      -0.883  -1.862  -3.746  0.00  0.00    +0.000 A 
ATOM     11  C   UNL     1      -1.318  -2.489  -4.911  0.00  0.00    +0.000 A 
ATOM     12  C   UNL     1      -1.028  -1.871  -6.137  0.00  0.00    +0.000 A 
ATOM     13  C   UNL     1      -0.350  -0.646  -6.203  0.00  0.00    +0.000 A 
ATOM     14  C   UNL     1       0.076   0.001  -5.050  0.00  0.00    +0.000 A 
ATOM     15  C   UNL     1      -0.203  -0.664  -3.865  0.00  0.00    +0.000 A 
ATOM     16  N   UNL     1       0.108  -0.349  -2.590  0.00  0.00    +0.000 N 
ATOM     17  H   UNL     1       0.603   0.492  -2.351  0.00  0.00    +0.000 HD
ENDBRANCH   7   8
BRANCH   5  18
ATOM     18  N   UNL     1       3.353   0.117   0.279  0.00  0.00    +0.000 N 
ATOM     19  C   UNL     1       4.151   1.178  -0.136  0.00  0.00    +0.000 C 
ATOM     20  O   UNL     1       3.716   2.059  -0.873  0.00  0.00    +0.000 OA
ATOM     21  N   UNL     1       5.448   1.167   0.350  0.00  0.00    +0.000 N 
ATOM     22  H   UNL     1       3.757  -0.702   0.711  0.00  0.00    +0.000 HD
ATOM     23  H   UNL     1       5.828   0.278   0.637  0.00  0.00    +0.000 HD
BRANCH  21  24
ATOM     24  C   UNL     1       6.369   2.197  -0.013  0.00  0.00    +0.000 A 
ATOM     25  C   UNL     1       6.031   3.552   0.111  0.00  0.00    +0.000 A 
ATOM     26  C   UNL     1       6.934   4.565  -0.256  0.00  0.00    +0.000 A 
ATOM     27  C   UNL     1       8.192   4.238  -0.762  0.00  0.00    +0.000 A 
ATOM     28  C   UNL     1       8.533   2.890  -0.908  0.00  0.00    +0.000 A 
ATOM     29  C   UNL     1       7.638   1.875  -0.510  0.00  0.00    +0.000 A 
BRANCH  27  30
ATOM     30  C   UNL     1       9.135   5.279  -1.089  0.00  0.00    +0.000 C 
ATOM     31  N   UNL     1       9.897   6.116  -1.320  0.00  0.00    +0.000 NA
ENDBRANCH  27  30
ENDBRANCH  21  24
ENDBRANCH   5  18
TORSDOF 4
