REMARK  Name = Gliclazide
REMARK  4 active torsions:
REMARK  status: ('A' for Active; 'I' for Inactive)
REMARK    1  A    between atoms: N_9  and  N_11
REMARK    2  A    between atoms: N_14  and  S_15
REMARK    3  A    between atoms: S_15  and  C_18
REMARK    4  A    between atoms: C_21  and  C_22
REMARK                            x       y       z     vdW  Elec       q    Type
REMARK                         _______ _______ _______ _____ _____    ______ ____
ROOT
ATOM      1  N   UNL     1       4.573   2.653  -0.763  0.00  0.00    +0.000 N 
ATOM      2  C   UNL     1       5.848   2.741  -1.343  0.00  0.00    +0.000 C 
ATOM      3  O   UNL     1       6.492   1.752  -1.679  0.00  0.00    +0.000 OA
ATOM      4  N   UNL     1       6.355   4.040  -1.551  0.00  0.00    +0.000 N 
ATOM      5  H   UNL     1       4.093   3.478  -0.427  0.00  0.00    +0.000 HD
ATOM      6  H   UNL     1       5.830   4.846  -1.262  0.00  0.00    +0.000 HD
ENDROOT
BRANCH   1  13
ATOM      7  C   UNL     1       2.188  -0.063   0.017  0.00  0.00    +0.000 C 
ATOM      8  C   UNL     1       2.660  -1.039   1.101  0.00  0.00    +0.000 C 
ATOM      9  C   UNL     1       2.992  -2.318   0.351  0.00  0.00    +0.000 C 
ATOM     10  C   UNL     1       3.634  -1.813  -0.928  0.00  0.00    +0.000 C 
ATOM     11  C   UNL     1       2.844  -0.550  -1.289  0.00  0.00    +0.000 C 
ATOM     12  C   UNL     1       3.714   0.619  -1.743  0.00  0.00    +0.000 C 
ATOM     13  N   UNL     1       3.994   1.364  -0.498  0.00  0.00    +0.000 NA
ATOM     14  C   UNL     1       2.692   1.377   0.194  0.00  0.00    +0.000 C 
ENDBRANCH   1  13
BRANCH   4  15
ATOM     15  S   UNL     1       7.853   4.257  -2.312  0.00  0.00    +0.000 S 
ATOM     16  O   UNL     1       8.877   3.744  -1.428  0.00  0.00    +0.000 OA
ATOM     17  O   UNL     1       7.718   3.823  -3.686  0.00  0.00    +0.000 OA
BRANCH  15  18
ATOM     18  C   UNL     1       8.188   6.023  -2.425  0.00  0.00    +0.000 A 
ATOM     19  C   UNL     1       7.276   6.986  -2.003  0.00  0.00    +0.000 A 
ATOM     20  C   UNL     1       7.580   8.348  -2.140  0.00  0.00    +0.000 A 
ATOM     21  C   UNL     1       8.793   8.772  -2.697  0.00  0.00    +0.000 A 
ATOM     22  C   UNL     1       9.088  10.238  -2.854  0.00  0.00    +0.000 C 
ATOM     23  C   UNL     1       9.715   7.804  -3.111  0.00  0.00    +0.000 A 
ATOM     24  C   UNL     1       9.417   6.436  -2.977  0.00  0.00    +0.000 A 
ENDBRANCH  15  18
ENDBRANCH   4  15
TORSDOF 3
