REMARK  Name = Glimepiride
REMARK  10 active torsions:
REMARK  status: ('A' for Active; 'I' for Inactive)
REMARK    1  A    between atoms: C_1  and  C_2
REMARK    2  A    between atoms: C_2  and  C_3
REMARK    3  A    between atoms: C_4  and  C_5
REMARK    4  A    between atoms: N_10  and  C_11
REMARK    5  A    between atoms: C_11  and  C_12
REMARK    6  A    between atoms: C_12  and  C_13
REMARK    7  A    between atoms: C_16  and  S_19
REMARK    8  A    between atoms: S_19  and  N_22
REMARK    9  A    between atoms: N_25  and  C_26
REMARK   10  A    between atoms: C_29  and  C_30
REMARK                            x       y       z     vdW  Elec       q    Type
REMARK                         _______ _______ _______ _____ _____    ______ ____
ROOT
ATOM      1  C   UNL     1       9.720   1.947  10.120  0.00  0.00    +0.000 A 
ATOM      2  C   UNL     1       9.230   2.794  11.123  0.00  0.00    +0.000 A 
ATOM      3  C   UNL     1       9.432   2.508  12.478  0.00  0.00    +0.000 A 
ATOM      4  C   UNL     1      10.020   1.298  12.869  0.00  0.00    +0.000 A 
ATOM      5  C   UNL     1      10.462   0.411  11.888  0.00  0.00    +0.000 A 
ATOM      6  C   UNL     1      10.311   0.737  10.524  0.00  0.00    +0.000 A 
ENDROOT
BRANCH   4   7
ATOM      7  S   UNL     1      10.064   0.953  14.635  0.00  0.00    +0.000 S 
ATOM      8  O   UNL     1      10.976   1.930  15.191  0.00  0.00    +0.000 OA
ATOM      9  O   UNL     1       8.671   0.882  15.023  0.00  0.00    +0.000 OA
BRANCH   7  10
ATOM     10  N   UNL     1      10.739  -0.570  14.843  0.00  0.00    +0.000 N 
ATOM     11  C   UNL     1      10.858  -1.168  16.099  0.00  0.00    +0.000 C 
ATOM     12  O   UNL     1      10.515  -0.616  17.142  0.00  0.00    +0.000 OA
ATOM     13  N   UNL     1      11.368  -2.438  16.177  0.00  0.00    +0.000 N 
ATOM     14  H   UNL     1      10.985  -1.093  14.025  0.00  0.00    +0.000 HD
ATOM     15  H   UNL     1      11.439  -2.746  17.142  0.00  0.00    +0.000 HD
BRANCH  13  16
ATOM     16  C   UNL     1      12.017  -3.255  15.156  0.00  0.00    +0.000 C 
ATOM     17  C   UNL     1      13.507  -2.913  15.032  0.00  0.00    +0.000 C 
ATOM     18  C   UNL     1      14.182  -3.746  13.940  0.00  0.00    +0.000 C 
ATOM     19  C   UNL     1      14.005  -5.252  14.171  0.00  0.00    +0.000 C 
ATOM     20  C   UNL     1      14.617  -6.048  13.017  0.00  0.00    +0.000 C 
ATOM     21  C   UNL     1      12.518  -5.592  14.333  0.00  0.00    +0.000 C 
ATOM     22  C   UNL     1      11.861  -4.759  15.439  0.00  0.00    +0.000 C 
ENDBRANCH  13  16
ENDBRANCH   7  10
ENDBRANCH   4   7
BRANCH   1  23
ATOM     23  C   UNL     1       9.715   2.344   8.645  0.00  0.00    +0.000 C 
BRANCH  23  24
ATOM     24  C   UNL     1       9.186   3.767   8.374  0.00  0.00    +0.000 C 
BRANCH  24  32
ATOM     25  C   UNL     1       9.212   5.856   2.997  0.00  0.00    +0.000 C 
ATOM     26  C   UNL     1       8.581   6.986   3.348  0.00  0.00    +0.000 C 
ATOM     27  C   UNL     1       8.157   8.092   2.438  0.00  0.00    +0.000 C 
ATOM     28  C   UNL     1       8.346   7.066   4.820  0.00  0.00    +0.000 C 
ATOM     29  N   UNL     1       8.838   5.792   5.290  0.00  0.00    +0.000 N 
ATOM     30  C   UNL     1       8.767   5.469   6.641  0.00  0.00    +0.000 C 
ATOM     31  O   UNL     1       8.309   6.251   7.474  0.00  0.00    +0.000 OA
ATOM     32  N   UNL     1       9.233   4.219   6.993  0.00  0.00    +0.000 N 
ATOM     33  C   UNL     1       9.350   5.040   4.232  0.00  0.00    +0.000 C 
ATOM     34  O   UNL     1       9.815   3.913   4.278  0.00  0.00    +0.000 OA
ATOM     35  H   UNL     1       9.599   3.618   6.259  0.00  0.00    +0.000 HD
BRANCH  25  37
ATOM     36  C   UNL     1      10.754   6.506   1.150  0.00  0.00    +0.000 C 
ATOM     37  C   UNL     1       9.737   5.479   1.653  0.00  0.00    +0.000 C 
ENDBRANCH  25  37
ENDBRANCH  24  32
ENDBRANCH  23  24
ENDBRANCH   1  23
TORSDOF 7
