REMARK  Name = Glipizide
REMARK  8 active torsions:
REMARK  status: ('A' for Active; 'I' for Inactive)
REMARK    1  A    between atoms: C_1  and  C_2
REMARK    2  A    between atoms: C_5  and  C_8
REMARK    3  A    between atoms: N_10  and  C_11
REMARK    4  A    between atoms: C_11  and  C_12
REMARK    5  A    between atoms: C_12  and  C_13
REMARK    6  A    between atoms: C_16  and  S_19
REMARK    7  A    between atoms: S_19  and  N_22
REMARK    8  A    between atoms: N_25  and  C_26
REMARK                            x       y       z     vdW  Elec       q    Type
REMARK                         _______ _______ _______ _____ _____    ______ ____
ROOT
ATOM      1  C   UNL     1      -7.783   1.704  -0.016  0.00  0.00    +0.000 A 
ATOM      2  C   UNL     1      -8.669   2.788   0.042  0.00  0.00    +0.000 A 
ATOM      3  C   UNL     1     -10.049   2.566   0.201  0.00  0.00    +0.000 A 
ATOM      4  C   UNL     1     -10.566   1.255   0.207  0.00  0.00    +0.000 A 
ATOM      5  C   UNL     1      -9.698   0.181   0.128  0.00  0.00    +0.000 A 
ATOM      6  C   UNL     1      -8.330   0.410   0.014  0.00  0.00    +0.000 A 
ENDROOT
BRANCH   4   7
ATOM      7  S   UNL     1     -12.338   1.027   0.203  0.00  0.00    +0.000 S 
ATOM      8  O   UNL     1     -12.777   1.491   1.502  0.00  0.00    +0.000 OA
ATOM      9  O   UNL     1     -12.774   1.642  -1.033  0.00  0.00    +0.000 OA
BRANCH   7  10
ATOM     10  N   UNL     1     -12.663  -0.644   0.099  0.00  0.00    +0.000 N 
ATOM     11  C   UNL     1     -13.997  -1.059   0.038  0.00  0.00    +0.000 C 
ATOM     12  O   UNL     1     -14.880  -0.214  -0.031  0.00  0.00    +0.000 OA
ATOM     13  N   UNL     1     -14.262  -2.423   0.079  0.00  0.00    +0.000 N 
ATOM     14  H   UNL     1     -11.908  -1.306   0.089  0.00  0.00    +0.000 HD
ATOM     15  H   UNL     1     -13.502  -3.078  -0.033  0.00  0.00    +0.000 HD
BRANCH  13  16
ATOM     16  C   UNL     1     -15.654  -2.964   0.031  0.00  0.00    +0.000 C 
ATOM     17  C   UNL     1     -15.752  -4.435   0.522  0.00  0.00    +0.000 C 
ATOM     18  C   UNL     1     -17.205  -4.939   0.633  0.00  0.00    +0.000 C 
ATOM     19  C   UNL     1     -18.070  -4.023   1.492  0.00  0.00    +0.000 C 
ATOM     20  C   UNL     1     -18.030  -2.614   0.949  0.00  0.00    +0.000 C 
ATOM     21  C   UNL     1     -16.609  -2.101   0.873  0.00  0.00    +0.000 C 
ENDBRANCH  13  16
ENDBRANCH   7  10
ENDBRANCH   4   7
BRANCH   1  22
ATOM     22  C   UNL     1      -6.277   1.928  -0.042  0.00  0.00    +0.000 C 
BRANCH  22  23
ATOM     23  C   UNL     1      -5.469   0.622  -0.025  0.00  0.00    +0.000 C 
BRANCH  23  26
ATOM     24  C   UNL     1      -3.236  -0.366  -0.008  0.00  0.00    +0.000 C 
ATOM     25  O   UNL     1      -3.700  -1.504  -0.010  0.00  0.00    +0.000 OA
ATOM     26  N   UNL     1      -4.033   0.768  -0.014  0.00  0.00    +0.000 N 
ATOM     27  H   UNL     1      -3.585   1.679  -0.006  0.00  0.00    +0.000 HD
BRANCH  24  32
ATOM     28  C   UNL     1       2.418   0.244  -0.009  0.00  0.00    +0.000 C 
ATOM     29  C   UNL     1       0.928   0.088   0.002  0.00  0.00    +0.000 A 
ATOM     30  N   UNL     1       0.428  -1.170  -0.001  0.00  0.00    +0.000 NA
ATOM     31  C   UNL     1      -0.927  -1.268  -0.003  0.00  0.00    +0.000 A 
ATOM     32  C   UNL     1      -1.760  -0.157  -0.001  0.00  0.00    +0.000 A 
ATOM     33  N   UNL     1      -1.276   1.116   0.003  0.00  0.00    +0.000 NA
ATOM     34  C   UNL     1       0.083   1.200   0.005  0.00  0.00    +0.000 A 
ENDBRANCH  24  32
ENDBRANCH  23  26
ENDBRANCH  22  23
ENDBRANCH   1  22
TORSDOF 7
