REMARK  Name = Gliquidone
REMARK  10 active torsions:
REMARK  status: ('A' for Active; 'I' for Inactive)
REMARK    1  A    between atoms: C_1  and  O_2
REMARK    2  A    between atoms: O_2  and  C_3
REMARK    3  A    between atoms: C_9  and  C_10
REMARK    4  A    between atoms: C_9  and  C_11
REMARK    5  A    between atoms: N_14  and  C_15
REMARK    6  A    between atoms: C_15  and  C_16
REMARK    7  A    between atoms: C_16  and  C_17
REMARK    8  A    between atoms: C_20  and  S_23
REMARK    9  A    between atoms: S_23  and  N_26
REMARK   10  A    between atoms: N_29  and  C_30
REMARK                            x       y       z     vdW  Elec       q    Type
REMARK                         _______ _______ _______ _____ _____    ______ ____
ROOT
ATOM      1  C   UNL     1       6.038   1.366  -8.826  0.00  0.00    +0.000 A 
ATOM      2  C   UNL     1       5.993   2.722  -8.490  0.00  0.00    +0.000 A 
ATOM      3  C   UNL     1       6.142   3.690  -9.480  0.00  0.00    +0.000 A 
ATOM      4  C   UNL     1       6.532   3.315 -10.772  0.00  0.00    +0.000 A 
ATOM      5  C   UNL     1       6.828   1.984 -11.045  0.00  0.00    +0.000 A 
ATOM      6  C   UNL     1       6.528   1.008 -10.091  0.00  0.00    +0.000 A 
ENDROOT
BRANCH   4   7
ATOM      7  S   UNL     1       6.571   4.591 -12.010  0.00  0.00    +0.000 S 
ATOM      8  O   UNL     1       5.185   4.977 -12.182  0.00  0.00    +0.000 OA
ATOM      9  O   UNL     1       7.584   5.518 -11.553  0.00  0.00    +0.000 OA
BRANCH   7  10
ATOM     10  N   UNL     1       7.102   3.892 -13.462  0.00  0.00    +0.000 N 
ATOM     11  C   UNL     1       7.236   4.731 -14.567  0.00  0.00    +0.000 C 
ATOM     12  O   UNL     1       7.010   5.926 -14.427  0.00  0.00    +0.000 OA
ATOM     13  N   UNL     1       7.608   4.167 -15.772  0.00  0.00    +0.000 N 
ATOM     14  H   UNL     1       7.268   2.904 -13.518  0.00  0.00    +0.000 HD
ATOM     15  H   UNL     1       7.833   3.184 -15.816  0.00  0.00    +0.000 HD
BRANCH  13  16
ATOM     16  C   UNL     1       7.749   4.953 -17.031  0.00  0.00    +0.000 C 
ATOM     17  C   UNL     1       6.752   6.122 -17.096  0.00  0.00    +0.000 C 
ATOM     18  C   UNL     1       6.893   7.043 -18.288  0.00  0.00    +0.000 C 
ATOM     19  C   UNL     1       8.325   7.551 -18.393  0.00  0.00    +0.000 C 
ATOM     20  C   UNL     1       9.297   6.381 -18.487  0.00  0.00    +0.000 C 
ATOM     21  C   UNL     1       9.189   5.446 -17.271  0.00  0.00    +0.000 C 
ENDBRANCH  13  16
ENDBRANCH   7  10
ENDBRANCH   4   7
BRANCH   1  22
ATOM     22  C   UNL     1       5.538   0.293  -7.883  0.00  0.00    +0.000 C 
BRANCH  22  23
ATOM     23  C   UNL     1       4.419   0.769  -6.928  0.00  0.00    +0.000 C 
BRANCH  23  35
ATOM     24  C   UNL     1       3.023  -0.360  -1.219  0.00  0.00    +0.000 A 
ATOM     25  C   UNL     1       2.667   0.088  -2.494  0.00  0.00    +0.000 A 
ATOM     26  C   UNL     1       3.354  -0.393  -3.615  0.00  0.00    +0.000 A 
ATOM     27  C   UNL     1       4.413  -1.308  -3.458  0.00  0.00    +0.000 A 
ATOM     28  C   UNL     1       4.784  -1.703  -2.166  0.00  0.00    +0.000 A 
ATOM     29  C   UNL     1       4.094  -1.235  -1.057  0.00  0.00    +0.000 A 
ATOM     30  C   UNL     1       5.164  -1.838  -4.670  0.00  0.00    +0.000 C 
ATOM     31  C   UNL     1       5.377  -3.353  -4.566  0.00  0.00    +0.000 C 
ATOM     32  C   UNL     1       6.531  -1.130  -4.765  0.00  0.00    +0.000 C 
ATOM     33  C   UNL     1       4.388  -1.507  -5.949  0.00  0.00    +0.000 C 
ATOM     34  O   UNL     1       4.218  -2.280  -6.884  0.00  0.00    +0.000 OA
ATOM     35  N   UNL     1       3.970  -0.198  -5.938  0.00  0.00    +0.000 N 
ATOM     36  C   UNL     1       3.044   0.149  -4.976  0.00  0.00    +0.000 C 
ATOM     37  O   UNL     1       2.060   0.850  -5.172  0.00  0.00    +0.000 OA
BRANCH  24  39
ATOM     38  C   UNL     1       1.013   0.065  -0.102  0.00  0.00    +0.000 C 
ATOM     39  O   UNL     1       2.437   0.075  -0.064  0.00  0.00    +0.000 OA
ENDBRANCH  24  39
ENDBRANCH  23  35
ENDBRANCH  22  23
ENDBRANCH   1  22
TORSDOF 7
