REMARK  Name = Gluconolactone
REMARK  5 active torsions:
REMARK  status: ('A' for Active; 'I' for Inactive)
REMARK    1  A    between atoms: O_1  and  C_2
REMARK    2  A    between atoms: C_2  and  C_3
REMARK    3  A    between atoms: C_7  and  O_8
REMARK    4  A    between atoms: C_9  and  O_10
REMARK    5  A    between atoms: C_11  and  O_12
REMARK                            x       y       z     vdW  Elec       q    Type
REMARK                         _______ _______ _______ _____ _____    ______ ____
ROOT
ATOM      1  C   UNL     1       2.944   1.081  -0.845  0.00  0.00    +0.000 C 
ATOM      2  O   UNL     1       3.549   2.019   0.065  0.00  0.00    +0.000 OA
ATOM      3  C   UNL     1       2.668   2.719   0.840  0.00  0.00    +0.000 C 
ATOM      4  O   UNL     1       2.740   2.756   2.065  0.00  0.00    +0.000 OA
ATOM      5  C   UNL     1       1.633   3.499   0.024  0.00  0.00    +0.000 C 
ATOM      6  C   UNL     1       0.907   2.516  -0.888  0.00  0.00    +0.000 C 
ATOM      7  C   UNL     1       1.918   1.768  -1.742  0.00  0.00    +0.000 C 
ENDROOT
BRANCH   5   8
ATOM      8  O   UNL     1       0.677   4.212   0.804  0.00  0.00    +0.000 OA
ATOM      9  H   UNL     1       0.152   3.560   1.302  0.00  0.00    +0.000 HD
ENDBRANCH   5   8
BRANCH   6  10
ATOM     10  O   UNL     1      -0.031   3.184  -1.736  0.00  0.00    +0.000 OA
ATOM     11  H   UNL     1       0.455   3.824  -2.286  0.00  0.00    +0.000 HD
ENDBRANCH   6  10
BRANCH   7  12
ATOM     12  O   UNL     1       1.283   0.816  -2.593  0.00  0.00    +0.000 OA
ATOM     13  H   UNL     1       0.673   0.278  -2.057  0.00  0.00    +0.000 HD
ENDBRANCH   7  12
BRANCH   1  14
ATOM     14  C   UNL     1       3.938   0.377  -1.786  0.00  0.00    +0.000 C 
BRANCH  14  15
ATOM     15  O   UNL     1       5.199   0.138  -1.195  0.00  0.00    +0.000 OA
ATOM     16  H   UNL     1       5.761  -0.234  -1.899  0.00  0.00    +0.000 HD
ENDBRANCH  14  15
ENDBRANCH   1  14
TORSDOF 5
