REMARK  Name = Glucosamine
REMARK  6 active torsions:
REMARK  status: ('A' for Active; 'I' for Inactive)
REMARK    1  A    between atoms: N_1  and  C_2
REMARK    2  A    between atoms: C_3  and  O_4
REMARK    3  A    between atoms: C_6  and  C_7
REMARK    4  A    between atoms: C_7  and  O_8
REMARK    5  A    between atoms: C_9  and  O_10
REMARK    6  A    between atoms: C_11  and  O_12
REMARK                            x       y       z     vdW  Elec       q    Type
REMARK                         _______ _______ _______ _____ _____    ______ ____
ROOT
ATOM      1  C   UNL     1       2.461  -0.068  -0.034  0.00  0.00    +0.000 C 
ATOM      2  C   UNL     1       2.929   0.903  -1.156  0.00  0.00    +0.000 C 
ATOM      3  O   UNL     1       2.482   0.478  -2.449  0.00  0.00    +0.000 OA
ATOM      4  C   UNL     1       2.954  -0.829  -2.809  0.00  0.00    +0.000 C 
ATOM      5  C   UNL     1       2.471  -1.878  -1.799  0.00  0.00    +0.000 C 
ATOM      6  C   UNL     1       2.923  -1.500  -0.379  0.00  0.00    +0.000 C 
ENDROOT
BRANCH   1   7
ATOM      7  N   UNL     1       2.908   0.312   1.321  0.00  0.00    +0.000 NA
ATOM      8  H   UNL     1       2.605   1.259   1.543  0.00  0.00    +0.000 HD
ATOM      9  H   UNL     1       3.927   0.329   1.359  0.00  0.00    +0.000 HD
ENDBRANCH   1   7
BRANCH   2  10
ATOM     10  O   UNL     1       4.337   1.125  -1.150  0.00  0.00    +0.000 OA
ATOM     11  H   UNL     1       4.793   0.278  -1.078  0.00  0.00    +0.000 HD
ENDBRANCH   2  10
BRANCH   5  12
ATOM     12  O   UNL     1       2.959  -3.177  -2.139  0.00  0.00    +0.000 OA
ATOM     13  H   UNL     1       3.920  -3.194  -2.026  0.00  0.00    +0.000 HD
ENDBRANCH   5  12
BRANCH   6  14
ATOM     14  O   UNL     1       2.426  -2.458   0.563  0.00  0.00    +0.000 OA
ATOM     15  H   UNL     1       1.457  -2.483   0.484  0.00  0.00    +0.000 HD
ENDBRANCH   6  14
BRANCH   4  16
ATOM     16  C   UNL     1       2.543  -1.190  -4.252  0.00  0.00    +0.000 C 
BRANCH  16  17
ATOM     17  O   UNL     1       1.267  -1.813  -4.350  0.00  0.00    +0.000 OA
ATOM     18  H   UNL     1       0.586  -1.118  -4.342  0.00  0.00    +0.000 HD
ENDBRANCH  16  17
ENDBRANCH   4  16
TORSDOF 6
