REMARK  Name = Gluconic Acid
REMARK  11 active torsions:
REMARK  status: ('A' for Active; 'I' for Inactive)
REMARK    1  A    between atoms: O_1  and  C_2
REMARK    2  A    between atoms: C_2  and  C_3
REMARK    3  A    between atoms: C_3  and  O_4
REMARK    4  A    between atoms: C_3  and  C_5
REMARK    5  A    between atoms: C_5  and  O_6
REMARK    6  A    between atoms: C_5  and  C_7
REMARK    7  A    between atoms: C_7  and  O_8
REMARK    8  A    between atoms: C_7  and  C_9
REMARK    9  A    between atoms: C_9  and  O_10
REMARK   10  A    between atoms: C_9  and  C_11
REMARK   11  A    between atoms: C_11  and  O_12
REMARK                            x       y       z     vdW  Elec       q    Type
REMARK                         _______ _______ _______ _____ _____    ______ ____
ROOT
ATOM      1  C   UNL     1       5.008   1.447  -2.567  0.00  0.00    +0.000 C 
ENDROOT
BRANCH   1   2
ATOM      2  O   UNL     1       4.546   0.659  -1.442  0.00  0.00    +0.000 OA
ATOM      3  H   UNL     1       4.722   1.167  -0.628  0.00  0.00    +0.000 HD
ENDBRANCH   1   2
BRANCH   1   4
ATOM      4  C   UNL     1       4.276   2.826  -2.518  0.00  0.00    +0.000 C 
BRANCH   4   5
ATOM      5  O   UNL     1       4.088   3.220  -1.154  0.00  0.00    +0.000 OA
ATOM      6  H   UNL     1       4.938   3.473  -0.761  0.00  0.00    +0.000 HD
ENDBRANCH   4   5
BRANCH   4   7
ATOM      7  C   UNL     1       4.648   4.070  -3.368  0.00  0.00    +0.000 C 
BRANCH   7   8
ATOM      8  O   UNL     1       4.801   3.693  -4.736  0.00  0.00    +0.000 OA
ATOM      9  H   UNL     1       5.674   4.033  -5.043  0.00  0.00    +0.000 HD
ENDBRANCH   7   8
BRANCH   7  10
ATOM     10  C   UNL     1       5.825   4.921  -2.854  0.00  0.00    +0.000 C 
BRANCH  10  11
ATOM     11  O   UNL     1       6.001   6.047  -3.711  0.00  0.00    +0.000 OA
ATOM     12  H   UNL     1       6.724   6.590  -3.347  0.00  0.00    +0.000 HD
ENDBRANCH  10  11
ENDBRANCH   7  10
ENDBRANCH   4   7
ENDBRANCH   1   4
BRANCH   1  13
ATOM     13  C   UNL     1       6.537   1.405  -2.593  0.00  0.00    +0.000 C 
BRANCH  13  14
ATOM     14  O   UNL     1       6.986   0.038  -2.496  0.00  0.00    +0.000 OA
ATOM     15  H   UNL     1       6.668  -0.443  -3.282  0.00  0.00    +0.000 HD
ENDBRANCH  13  14
BRANCH  13  16
ATOM     16  C   UNL     1       7.189   1.963  -3.855  0.00  0.00    +0.000 C 
ATOM     17  O   UNL     1       8.364   2.270  -3.913  0.00  0.00    +0.000 OA
BRANCH  16  18
ATOM     18  O   UNL     1       6.415   2.041  -4.955  0.00  0.00    +0.000 OA
ATOM     19  H   UNL     1       5.432   2.083  -4.865  0.00  0.00    +0.000 HD
ENDBRANCH  16  18
ENDBRANCH  13  16
ENDBRANCH   1  13
TORSDOF 11
