REMARK  Name = Glutathione
REMARK  13 active torsions:
REMARK  status: ('A' for Active; 'I' for Inactive)
REMARK    1  A    between atoms: N_1  and  C_2
REMARK    2  A    between atoms: C_2  and  C_3
REMARK    3  A    between atoms: C_2  and  C_18
REMARK    4  A    between atoms: C_3  and  C_4
REMARK    5  A    between atoms: C_4  and  C_5
REMARK    6  A    between atoms: N_7  and  C_8
REMARK    7  A    between atoms: C_8  and  C_9
REMARK    8  A    between atoms: C_8  and  C_11
REMARK    9  A    between atoms: C_9  and  S_10
REMARK   10  A    between atoms: N_13  and  CA_14
REMARK   11  A    between atoms: CA_14  and  C_15
REMARK   12  A    between atoms: C_15  and  O_16
REMARK   13  A    between atoms: C_18  and  O_19
REMARK                            x       y       z     vdW  Elec       q    Type
REMARK                         _______ _______ _______ _____ _____    ______ ____
ROOT
ATOM      1  C   UNK A   1       2.934   3.780  -0.409  0.00  0.00    +0.000 C 
ATOM      2  O   UNK A   1       3.320   4.041   0.727  0.00  0.00    +0.000 OA
ATOM      3  N   UNK A   1       2.801   4.755  -1.371  0.00  0.00    +0.000 N 
ATOM      4  H   UNK A   1       2.227   4.591  -2.196  0.00  0.00    +0.000 HD
ENDROOT
BRANCH   1   5
ATOM      5  C   UNK A   1       2.529   2.373  -0.812  0.00  0.00    +0.000 C 
BRANCH   5   6
ATOM      6  C   UNK A   1       3.013   1.362   0.246  0.00  0.00    +0.000 C 
BRANCH   6   7
ATOM      7  C   UNK A   1       2.520  -0.073   0.038  0.00  0.00    +0.000 C 
BRANCH   7   8
ATOM      8  N   UNK A   1       1.032  -0.137   0.113  0.00  0.00    +0.000 NA
ATOM      9  H   UNK A   1       0.667   0.388  -0.688  0.00  0.00    +0.000 HD
ATOM     10  H   UNK A   1       0.720   0.413   0.920  0.00  0.00    +0.000 HD
ENDBRANCH   7   8
BRANCH   7  11
ATOM     11  C   UNK A   1       3.130  -1.004   1.109  0.00  0.00    +0.000 C 
ATOM     12  O   UNK A   1       4.332  -1.149   1.296  0.00  0.00    +0.000 OA
BRANCH  11  13
ATOM     13  O   UNK A   1       2.194  -1.657   1.843  0.00  0.00    +0.000 OA
ATOM     14  H   UNK A   1       1.312  -1.455   1.454  0.00  0.00    +0.000 HD
ENDBRANCH  11  13
ENDBRANCH   7  11
ENDBRANCH   6   7
ENDBRANCH   5   6
ENDBRANCH   1   5
BRANCH   3  15
ATOM     15  C   UNK A   1       3.264   6.135  -1.137  0.00  0.00    +0.000 C 
BRANCH  15  16
ATOM     16  C   UNK A   1       2.692   7.087  -2.247  0.00  0.00    +0.000 C 
ATOM     17  O   UNK A   1       1.968   6.673  -3.151  0.00  0.00    +0.000 OA
ATOM     18  N   GLY A   2       3.048   8.426  -2.137  0.00  0.00    +0.000 N 
ATOM     19  H   GLY A   2       3.576   8.698  -1.326  0.00  0.00    +0.000 HD
BRANCH  18  20
ATOM     20  CA  GLY A   2       2.616   9.429  -3.123  0.00  0.00    +0.000 C 
BRANCH  20  21
ATOM     21  C   GLY A   2       3.065  10.889  -2.954  0.00  0.00    +0.000 C 
ATOM     22  OXT GLY A   2       2.744  11.775  -3.736  0.00  0.00    +0.000 OA
BRANCH  21  23
ATOM     23  O   GLY A   2       3.844  11.168  -1.888  0.00  0.00    +0.000 OA
ATOM     24  H   GLY A   2       4.082  10.440  -1.298  0.00  0.00    +0.000 HD
ENDBRANCH  21  23
ENDBRANCH  20  21
ENDBRANCH  18  20
ENDBRANCH  15  16
BRANCH  15  25
ATOM     25  C   UNK A   1       4.808   6.253  -1.159  0.00  0.00    +0.000 C 
BRANCH  25  26
ATOM     26  S   UNK A   1       5.823   5.444   0.123  0.00  0.00    +0.000 S 
ATOM     27  H   UNK A   1       4.895   5.421   1.100  0.00  0.00    +0.000 HD
ENDBRANCH  25  26
ENDBRANCH  15  25
ENDBRANCH   3  15
TORSDOF 13
