REMARK  Name = Glutamic acid
REMARK  7 active torsions:
REMARK  status: ('A' for Active; 'I' for Inactive)
REMARK    1  A    between atoms: N_1  and  CA_2
REMARK    2  A    between atoms: CA_2  and  CB_3
REMARK    3  A    between atoms: CA_2  and  C_8
REMARK    4  A    between atoms: CB_3  and  CG_4
REMARK    5  A    between atoms: CG_4  and  CD_5
REMARK    6  A    between atoms: CD_5  and  OE1_6
REMARK    7  A    between atoms: C_8  and  O_9
REMARK                            x       y       z     vdW  Elec       q    Type
REMARK                         _______ _______ _______ _____ _____    ______ ____
ROOT
ATOM      1  CA  GLU A   1       2.468   0.105  -0.114  0.00  0.00    +0.000 C 
ENDROOT
BRANCH   1   2
ATOM      2  N   GLU A   1       0.984   0.156  -0.163  0.00  0.00    +0.000 NA
ATOM      3  H1  GLU A   1       0.628  -0.481   0.560  0.00  0.00    +0.000 HD
ATOM      4  H2  GLU A   1       0.652  -0.261  -1.036  0.00  0.00    +0.000 HD
ENDBRANCH   1   2
BRANCH   1   5
ATOM      5  C   GLU A   1       3.066   1.170  -1.052  0.00  0.00    +0.000 C 
ATOM      6  OXT GLU A   1       4.270   1.317  -1.231  0.00  0.00    +0.000 OA
BRANCH   5   7
ATOM      7  O   GLU A   1       2.136   1.901  -1.709  0.00  0.00    +0.000 OA
ATOM      8  H   GLU A   1       1.246   1.672  -1.356  0.00  0.00    +0.000 HD
ENDBRANCH   5   7
ENDBRANCH   1   5
BRANCH   1   9
ATOM      9  CB  GLU A   1       2.994  -1.272  -0.539  0.00  0.00    +0.000 C 
BRANCH   9  10
ATOM     10  CG  GLU A   1       2.557  -2.415   0.372  0.00  0.00    +0.000 C 
BRANCH  10  11
ATOM     11  CD  GLU A   1       3.033  -3.796  -0.021  0.00  0.00    +0.000 C 
ATOM     12  OE2 GLU A   1       2.717  -4.788   0.627  0.00  0.00    +0.000 OA
BRANCH  11  13
ATOM     13  OE1 GLU A   1       3.799  -3.900  -1.120  0.00  0.00    +0.000 OA
ATOM     14  HE1 GLU A   1       4.040  -3.087  -1.598  0.00  0.00    +0.000 HD
ENDBRANCH  11  13
ENDBRANCH  10  11
ENDBRANCH   9  10
ENDBRANCH   1   9
TORSDOF 7
