REMARK  Name = Glutathione disulfide
REMARK  27 active torsions:
REMARK  status: ('A' for Active; 'I' for Inactive)
REMARK    1  A    between atoms: N_1  and  C_2
REMARK    2  A    between atoms: C_2  and  C_3
REMARK    3  A    between atoms: C_2  and  C_38
REMARK    4  A    between atoms: C_3  and  C_4
REMARK    5  A    between atoms: C_4  and  C_5
REMARK    6  A    between atoms: N_7  and  C_8
REMARK    7  A    between atoms: C_8  and  C_9
REMARK    8  A    between atoms: C_8  and  C_31
REMARK    9  A    between atoms: C_9  and  S_10
REMARK   10  A    between atoms: S_10  and  S_11
REMARK   11  A    between atoms: S_11  and  C_12
REMARK   12  A    between atoms: C_12  and  C_13
REMARK   13  A    between atoms: C_13  and  N_14
REMARK   14  A    between atoms: C_13  and  C_24
REMARK   15  A    between atoms: C_15  and  C_17
REMARK   16  A    between atoms: C_17  and  C_18
REMARK   17  A    between atoms: C_18  and  C_19
REMARK   18  A    between atoms: C_19  and  N_20
REMARK   19  A    between atoms: C_19  and  C_21
REMARK   20  A    between atoms: C_21  and  O_22
REMARK   21  A    between atoms: N_26  and  CA_27
REMARK   22  A    between atoms: CA_27  and  C_28
REMARK   23  A    between atoms: C_28  and  O_29
REMARK   24  A    between atoms: N_33  and  CA_34
REMARK   25  A    between atoms: CA_34  and  C_35
REMARK   26  A    between atoms: C_35  and  O_36
REMARK   27  A    between atoms: C_38  and  O_39
REMARK                            x       y       z     vdW  Elec       q    Type
REMARK                         _______ _______ _______ _____ _____    ______ ____
ROOT
ATOM      1  S   UNK A   1      -4.211  -8.368  -2.125  0.00  0.00    +0.000 S 
ENDROOT
BRANCH   1   2
ATOM      2  S   UNK A   1      -2.446  -8.585  -1.130  0.00  0.00    +0.000 S 
BRANCH   2   3
ATOM      3  C   UNK A   1      -1.735  -6.862  -1.182  0.00  0.00    +0.000 C 
BRANCH   3   4
ATOM      4  C   UNK A   1      -0.189  -6.785  -1.100  0.00  0.00    +0.000 C 
BRANCH   4   5
ATOM      5  C   UNK A   1       0.502  -7.625  -2.229  0.00  0.00    +0.000 C 
ATOM      6  O   UNK A   1       1.171  -7.130  -3.131  0.00  0.00    +0.000 OA
ATOM      7  N   GLY A   2       0.271  -8.993  -2.144  0.00  0.00    +0.000 N 
ATOM      8  H   GLY A   2      -0.470  -9.247  -1.513  0.00  0.00    +0.000 HD
BRANCH   7   9
ATOM      9  CA  GLY A   2       0.685  -9.920  -3.192  0.00  0.00    +0.000 C 
BRANCH   9  10
ATOM     10  C   GLY A   2       0.209 -11.379  -3.108  0.00  0.00    +0.000 C 
ATOM     11  OXT GLY A   2       0.557 -12.233  -3.915  0.00  0.00    +0.000 OA
BRANCH  10  12
ATOM     12  O   GLY A   2      -0.663 -11.690  -2.124  0.00  0.00    +0.000 OA
ATOM     13  H   GLY A   2      -0.903 -10.991  -1.497  0.00  0.00    +0.000 HD
ENDBRANCH  10  12
ENDBRANCH   9  10
ENDBRANCH   7   9
ENDBRANCH   4   5
BRANCH   4  14
ATOM     14  N   UNK A   1       0.277  -5.376  -1.129  0.00  0.00    +0.000 N 
ATOM     15  C   UNK A   1       1.478  -5.028  -0.535  0.00  0.00    +0.000 C 
ATOM     16  O   UNK A   1       2.122  -5.838   0.128  0.00  0.00    +0.000 OA
ATOM     17  H   UNK A   1      -0.106  -4.751  -1.829  0.00  0.00    +0.000 HD
BRANCH  15  18
ATOM     18  C   UNK A   1       1.937  -3.580  -0.738  0.00  0.00    +0.000 C 
BRANCH  18  19
ATOM     19  C   UNK A   1       3.259  -3.314   0.015  0.00  0.00    +0.000 C 
BRANCH  19  20
ATOM     20  C   UNK A   1       3.774  -1.869  -0.115  0.00  0.00    +0.000 C 
BRANCH  20  21
ATOM     21  N   UNK A   1       5.252  -1.861  -0.097  0.00  0.00    +0.000 NA
ATOM     22  H   UNK A   1       5.644  -2.318   0.721  0.00  0.00    +0.000 HD
ATOM     23  H   UNK A   1       5.645  -0.942  -0.282  0.00  0.00    +0.000 HD
ENDBRANCH  20  21
BRANCH  20  24
ATOM     24  C   UNK A   1       3.195  -0.998   1.018  0.00  0.00    +0.000 C 
ATOM     25  O   UNK A   1       1.991  -0.846   1.204  0.00  0.00    +0.000 OA
BRANCH  24  26
ATOM     26  O   UNK A   1       4.112  -0.399   1.815  0.00  0.00    +0.000 OA
ATOM     27  H   UNK A   1       5.027  -0.620   1.565  0.00  0.00    +0.000 HD
ENDBRANCH  24  26
ENDBRANCH  20  24
ENDBRANCH  19  20
ENDBRANCH  18  19
ENDBRANCH  15  18
ENDBRANCH   4  14
ENDBRANCH   3   4
ENDBRANCH   2   3
ENDBRANCH   1   2
BRANCH   1  28
ATOM     28  C   UNK A   1      -5.134  -9.952  -1.929  0.00  0.00    +0.000 C 
BRANCH  28  29
ATOM     29  C   UNK A   1      -6.680  -9.800  -1.976  0.00  0.00    +0.000 C 
BRANCH  29  32
ATOM     30  C   UNK A   1      -7.039  -7.844  -0.455  0.00  0.00    +0.000 C 
ATOM     31  O   UNK A   1      -6.572  -7.051  -1.268  0.00  0.00    +0.000 OA
ATOM     32  N   UNK A   1      -7.211  -9.181  -0.737  0.00  0.00    +0.000 N 
ATOM     33  H   UNK A   1      -7.890  -9.726  -0.209  0.00  0.00    +0.000 HD
BRANCH  30  34
ATOM     34  C   UNK A   1      -7.503  -7.359   0.903  0.00  0.00    +0.000 C 
BRANCH  34  35
ATOM     35  C   UNK A   1      -6.925  -5.952   1.177  0.00  0.00    +0.000 C 
BRANCH  35  36
ATOM     36  C   UNK A   1      -7.475  -5.272   2.433  0.00  0.00    +0.000 C 
BRANCH  36  37
ATOM     37  N   UNK A   1      -8.946  -5.070   2.316  0.00  0.00    +0.000 NA
ATOM     38  H   UNK A   1      -9.377  -5.999   2.283  0.00  0.00    +0.000 HD
ATOM     39  H   UNK A   1      -9.151  -4.682   1.390  0.00  0.00    +0.000 HD
ENDBRANCH  36  37
BRANCH  36  40
ATOM     40  C   UNK A   1      -6.777  -3.913   2.648  0.00  0.00    +0.000 C 
ATOM     41  O   UNK A   1      -5.564  -3.772   2.760  0.00  0.00    +0.000 OA
BRANCH  40  42
ATOM     42  O   UNK A   1      -7.638  -2.866   2.693  0.00  0.00    +0.000 OA
ATOM     43  H   UNK A   1      -8.556  -3.220   2.670  0.00  0.00    +0.000 HD
ENDBRANCH  40  42
ENDBRANCH  36  40
ENDBRANCH  35  36
ENDBRANCH  34  35
ENDBRANCH  30  34
ENDBRANCH  29  32
BRANCH  29  44
ATOM     44  C   UNK A   1      -7.333 -11.210  -2.193  0.00  0.00    +0.000 C 
ATOM     45  O   UNK A   1      -8.166 -11.667  -1.412  0.00  0.00    +0.000 OA
ATOM     46  N   GLY A   2      -6.928 -11.900  -3.329  0.00  0.00    +0.000 N 
ATOM     47  H   GLY A   2      -6.321 -11.422  -3.971  0.00  0.00    +0.000 HD
BRANCH  46  48
ATOM     48  CA  GLY A   2      -7.447 -13.241  -3.652  0.00  0.00    +0.000 C 
BRANCH  48  49
ATOM     49  C   GLY A   2      -6.941 -13.953  -4.916  0.00  0.00    +0.000 C 
ATOM     50  OXT GLY A   2      -7.322 -15.071  -5.243  0.00  0.00    +0.000 OA
BRANCH  49  51
ATOM     51  O   GLY A   2      -6.046 -13.288  -5.676  0.00  0.00    +0.000 OA
ATOM     52  H   GLY A   2      -5.757 -12.413  -5.384  0.00  0.00    +0.000 HD
ENDBRANCH  49  51
ENDBRANCH  48  49
ENDBRANCH  46  48
ENDBRANCH  29  44
ENDBRANCH  28  29
ENDBRANCH   1  28
TORSDOF 27
