REMARK  Name = Glutethimide
REMARK  3 active torsions:
REMARK  status: ('A' for Active; 'I' for Inactive)
REMARK    1  A    between atoms: C_1  and  C_2
REMARK    2  A    between atoms: C_2  and  C_3
REMARK    3  A    between atoms: C_3  and  C_11
REMARK                            x       y       z     vdW  Elec       q    Type
REMARK                         _______ _______ _______ _____ _____    ______ ____
ROOT
ATOM      1  C   UNL     1       3.115  -1.482  -0.249  0.00  0.00    +0.000 C 
ATOM      2  C   UNL     1       2.927  -3.008  -0.571  0.00  0.00    +0.000 C 
ATOM      3  C   UNL     1       2.223  -3.846   0.423  0.00  0.00    +0.000 C 
ATOM      4  C   UNL     1       3.094  -3.876   1.613  0.00  0.00    +0.000 C 
ATOM      5  O   UNL     1       3.215  -4.889   2.313  0.00  0.00    +0.000 OA
ATOM      6  N   UNL     1       3.765  -2.701   1.869  0.00  0.00    +0.000 N 
ATOM      7  C   UNL     1       3.969  -1.577   1.047  0.00  0.00    +0.000 C 
ATOM      8  O   UNL     1       4.644  -0.665   1.527  0.00  0.00    +0.000 OA
ATOM      9  H   UNL     1       4.276  -2.702   2.742  0.00  0.00    +0.000 HD
ENDROOT
BRANCH   1  10
ATOM     10  C   UNL     1       3.350  -1.223  -1.751  0.00  0.00    +0.000 A 
ATOM     11  C   UNL     1       4.531  -0.867  -2.352  0.00  0.00    +0.000 A 
ATOM     12  C   UNL     1       4.543  -0.798  -3.749  0.00  0.00    +0.000 A 
ATOM     13  C   UNL     1       3.454  -1.226  -4.537  0.00  0.00    +0.000 A 
ATOM     14  C   UNL     1       2.266  -1.606  -3.954  0.00  0.00    +0.000 A 
ATOM     15  C   UNL     1       2.188  -1.487  -2.589  0.00  0.00    +0.000 A 
ENDBRANCH   1  10
BRANCH   1  17
ATOM     16  C   UNL     1       0.916  -0.036   0.043  0.00  0.00    +0.000 C 
ATOM     17  C   UNL     1       2.410  -0.094   0.006  0.00  0.00    +0.000 C 
ENDBRANCH   1  17
TORSDOF 2
