REMARK  Name = Glyburide
REMARK  9 active torsions:
REMARK  status: ('A' for Active; 'I' for Inactive)
REMARK    1  A    between atoms: C_1  and  O_2
REMARK    2  A    between atoms: O_2  and  C_3
REMARK    3  A    between atoms: C_4  and  C_10
REMARK    4  A    between atoms: N_12  and  C_13
REMARK    5  A    between atoms: C_13  and  C_14
REMARK    6  A    between atoms: C_14  and  C_15
REMARK    7  A    between atoms: C_18  and  S_21
REMARK    8  A    between atoms: S_21  and  N_24
REMARK    9  A    between atoms: N_27  and  C_28
REMARK                            x       y       z     vdW  Elec       q    Type
REMARK                         _______ _______ _______ _____ _____    ______ ____
ROOT
ATOM      1  C   UNL     1      -1.229   6.457   2.155  0.00  0.00    +0.000 A 
ATOM      2  C   UNL     1      -1.502   7.800   2.433  0.00  0.00    +0.000 A 
ATOM      3  C   UNL     1      -2.520   8.136   3.336  0.00  0.00    +0.000 A 
ATOM      4  C   UNL     1      -3.338   7.133   3.893  0.00  0.00    +0.000 A 
ATOM      5  C   UNL     1      -3.090   5.804   3.602  0.00  0.00    +0.000 A 
ATOM      6  C   UNL     1      -2.051   5.477   2.738  0.00  0.00    +0.000 A 
ENDROOT
BRANCH   4   7
ATOM      7  S   UNL     1      -4.741   7.629   4.875  0.00  0.00    +0.000 S 
ATOM      8  O   UNL     1      -4.171   8.212   6.071  0.00  0.00    +0.000 OA
ATOM      9  O   UNL     1      -5.568   8.384   3.957  0.00  0.00    +0.000 OA
BRANCH   7  10
ATOM     10  N   UNL     1      -5.601   6.228   5.321  0.00  0.00    +0.000 N 
ATOM     11  C   UNL     1      -6.765   6.396   6.083  0.00  0.00    +0.000 C 
ATOM     12  O   UNL     1      -7.151   7.518   6.329  0.00  0.00    +0.000 OA
ATOM     13  N   UNL     1      -7.408   5.248   6.539  0.00  0.00    +0.000 N 
ATOM     14  H   UNL     1      -5.268   5.320   5.056  0.00  0.00    +0.000 HD
ATOM     15  H   UNL     1      -7.126   4.349   6.179  0.00  0.00    +0.000 HD
BRANCH  13  16
ATOM     16  C   UNL     1      -8.666   5.295   7.347  0.00  0.00    +0.000 C 
ATOM     17  C   UNL     1      -8.811   4.059   8.272  0.00  0.00    +0.000 C 
ATOM     18  C   UNL     1     -10.005   4.161   9.240  0.00  0.00    +0.000 C 
ATOM     19  C   UNL     1      -9.978   5.448  10.056  0.00  0.00    +0.000 C 
ATOM     20  C   UNL     1      -9.938   6.645   9.133  0.00  0.00    +0.000 C 
ATOM     21  C   UNL     1      -8.753   6.571   8.198  0.00  0.00    +0.000 C 
ENDBRANCH  13  16
ENDBRANCH   7  10
ENDBRANCH   4   7
BRANCH   1  22
ATOM     22  C   UNL     1      -0.031   6.092   1.303  0.00  0.00    +0.000 C 
BRANCH  22  23
ATOM     23  C   UNL     1       0.214   4.592   1.243  0.00  0.00    +0.000 C 
BRANCH  23  26
ATOM     24  C   UNL     1       1.735   2.876   0.515  0.00  0.00    +0.000 C 
ATOM     25  O   UNL     1       1.190   2.151   1.340  0.00  0.00    +0.000 OA
ATOM     26  N   UNL     1       1.355   4.205   0.454  0.00  0.00    +0.000 N 
ATOM     27  H   UNL     1       1.897   4.920  -0.003  0.00  0.00    +0.000 HD
BRANCH  24  29
ATOM     28  C   UNL     1       3.114   1.009  -0.548  0.00  0.00    +0.000 A 
ATOM     29  C   UNL     1       2.816   2.379  -0.393  0.00  0.00    +0.000 A 
ATOM     30  C   UNL     1       3.637   3.322  -1.046  0.00  0.00    +0.000 A 
ATOM     31  C   UNL     1       4.751   2.927  -1.787  0.00  0.00    +0.000 A 
ATOM     32 CL   UNL     1       5.740   4.123  -2.532  0.00  0.00    +0.000 Cl
ATOM     33  C   UNL     1       5.075   1.586  -1.903  0.00  0.00    +0.000 A 
ATOM     34  C   UNL     1       4.257   0.634  -1.288  0.00  0.00    +0.000 A 
BRANCH  28  36
ATOM     35  C   UNL     1       1.100  -0.222  -0.097  0.00  0.00    +0.000 C 
ATOM     36  O   UNL     1       2.505  -0.048   0.080  0.00  0.00    +0.000 OA
ENDBRANCH  28  36
ENDBRANCH  24  29
ENDBRANCH  23  26
ENDBRANCH  22  23
ENDBRANCH   1  22
TORSDOF 8
