REMARK  Name = Glycerin
REMARK  5 active torsions:
REMARK  status: ('A' for Active; 'I' for Inactive)
REMARK    1  A    between atoms: O_1  and  C_2
REMARK    2  A    between atoms: C_2  and  C_3
REMARK    3  A    between atoms: C_3  and  O_4
REMARK    4  A    between atoms: C_3  and  C_5
REMARK    5  A    between atoms: C_5  and  O_6
REMARK                            x       y       z     vdW  Elec       q    Type
REMARK                         _______ _______ _______ _____ _____    ______ ____
ROOT
ATOM      1  C   UNL     1       2.888   1.088   0.896  0.00  0.00    +0.000 C 
ENDROOT
BRANCH   1   2
ATOM      2  O   UNL     1       2.421   0.820   2.226  0.00  0.00    +0.000 OA
ATOM      3  H   UNL     1       2.728  -0.062   2.485  0.00  0.00    +0.000 HD
ENDBRANCH   1   2
BRANCH   1   4
ATOM      4  C   UNL     1       2.359   0.034  -0.088  0.00  0.00    +0.000 C 
BRANCH   4   5
ATOM      5  O   UNL     1       0.936   0.060  -0.133  0.00  0.00    +0.000 OA
ATOM      6  H   UNL     1       0.648  -0.662  -0.718  0.00  0.00    +0.000 HD
ENDBRANCH   4   5
ENDBRANCH   1   4
BRANCH   1   7
ATOM      7  C   UNL     1       4.424   1.102   0.880  0.00  0.00    +0.000 C 
BRANCH   7   8
ATOM      8  O   UNL     1       4.966   2.087   1.755  0.00  0.00    +0.000 OA
ATOM      9  H   UNL     1       4.473   2.913   1.617  0.00  0.00    +0.000 HD
ENDBRANCH   7   8
ENDBRANCH   1   7
TORSDOF 5
