REMARK  Name = Glycol salicylate
REMARK  6 active torsions:
REMARK  status: ('A' for Active; 'I' for Inactive)
REMARK    1  A    between atoms: O_1  and  C_2
REMARK    2  A    between atoms: C_2  and  C_3
REMARK    3  A    between atoms: C_3  and  O_4
REMARK    4  A    between atoms: O_4  and  C_5
REMARK    5  A    between atoms: C_5  and  C_7
REMARK    6  A    between atoms: C_12  and  O_13
REMARK                            x       y       z     vdW  Elec       q    Type
REMARK                         _______ _______ _______ _____ _____    ______ ____
ROOT
ATOM      1  C   UNL     1       6.418  -2.630  -0.407  0.00  0.00    +0.000 A 
ATOM      2  C   UNL     1       7.130  -3.393  -1.350  0.00  0.00    +0.000 A 
ATOM      3  C   UNL     1       8.529  -3.415  -1.337  0.00  0.00    +0.000 A 
ATOM      4  C   UNL     1       9.227  -2.696  -0.369  0.00  0.00    +0.000 A 
ATOM      5  C   UNL     1       8.529  -1.948   0.583  0.00  0.00    +0.000 A 
ATOM      6  C   UNL     1       7.128  -1.912   0.561  0.00  0.00    +0.000 A 
ENDROOT
BRANCH   1   7
ATOM      7  C   UNL     1       4.933  -2.700  -0.418  0.00  0.00    +0.000 C 
ATOM      8  O   UNL     1       4.335  -3.752  -0.606  0.00  0.00    +0.000 OA
BRANCH   7   9
ATOM      9  O   UNL     1       4.360  -1.475  -0.273  0.00  0.00    +0.000 OA
BRANCH   9  10
ATOM     10  C   UNL     1       2.921  -1.486  -0.257  0.00  0.00    +0.000 C 
BRANCH  10  11
ATOM     11  C   UNL     1       2.383  -0.066  -0.068  0.00  0.00    +0.000 C 
BRANCH  11  12
ATOM     12  O   UNL     1       0.958  -0.067  -0.067  0.00  0.00    +0.000 OA
ATOM     13  H   UNL     1       0.668   0.854   0.053  0.00  0.00    +0.000 HD
ENDBRANCH  11  12
ENDBRANCH  10  11
ENDBRANCH   9  10
ENDBRANCH   7   9
ENDBRANCH   1   7
BRANCH   6  14
ATOM     14  O   UNL     1       6.453  -1.207   1.517  0.00  0.00    +0.000 OA
ATOM     15  H   UNL     1       7.081  -0.734   2.084  0.00  0.00    +0.000 HD
ENDBRANCH   6  14
TORSDOF 6
