REMARK  Name = Glycolic acid
REMARK  3 active torsions:
REMARK  status: ('A' for Active; 'I' for Inactive)
REMARK    1  A    between atoms: O_1  and  C_2
REMARK    2  A    between atoms: C_2  and  C_3
REMARK    3  A    between atoms: C_3  and  O_4
REMARK                            x       y       z     vdW  Elec       q    Type
REMARK                         _______ _______ _______ _____ _____    ______ ____
ROOT
ATOM      1  C   UNL     1       3.073   0.766  -1.293  0.00  0.00    +0.000 C 
ATOM      2  O   UNL     1       4.275   0.885  -1.492  0.00  0.00    +0.000 OA
ENDROOT
BRANCH   1   3
ATOM      3  O   UNL     1       2.132   1.268  -2.128  0.00  0.00    +0.000 OA
ATOM      4  H   UNL     1       1.238   1.055  -1.775  0.00  0.00    +0.000 HD
ENDBRANCH   1   3
BRANCH   1   5
ATOM      5  C   UNL     1       2.482   0.043  -0.089  0.00  0.00    +0.000 C 
BRANCH   5   6
ATOM      6  O   UNL     1       1.056   0.050  -0.100  0.00  0.00    +0.000 OA
ATOM      7  H   UNL     1       0.785  -0.434   0.705  0.00  0.00    +0.000 HD
ENDBRANCH   5   6
ENDBRANCH   1   5
TORSDOF 3
