REMARK  Name = Glycine
REMARK  3 active torsions:
REMARK  status: ('A' for Active; 'I' for Inactive)
REMARK    1  A    between atoms: N_1  and  CA_2
REMARK    2  A    between atoms: CA_2  and  C_3
REMARK    3  A    between atoms: C_3  and  O_4
REMARK                            x       y       z     vdW  Elec       q    Type
REMARK                         _______ _______ _______ _____ _____    ______ ____
ROOT
ATOM      1  CA  GLY A   1       2.442   0.004  -0.124  0.00  0.00    +0.000 C 
ENDROOT
BRANCH   1   2
ATOM      2  N   GLY A   1       0.958   0.016  -0.157  0.00  0.00    +0.000 NA
ATOM      3  H1  GLY A   1       0.650  -0.745   0.461  0.00  0.00    +0.000 HD
ATOM      4  H2  GLY A   1       0.646  -0.291  -1.081  0.00  0.00    +0.000 HD
ENDBRANCH   1   2
BRANCH   1   5
ATOM      5  C   GLY A   1       3.030   1.144  -0.948  0.00  0.00    +0.000 C 
ATOM      6  OXT GLY A   1       4.235   1.320  -1.096  0.00  0.00    +0.000 OA
BRANCH   5   7
ATOM      7  O   GLY A   1       2.099   1.943  -1.522  0.00  0.00    +0.000 OA
ATOM      8  H   GLY A   1       1.211   1.672  -1.196  0.00  0.00    +0.000 HD
ENDBRANCH   5   7
ENDBRANCH   1   5
TORSDOF 3
