REMARK  Name = Glycopyrronium
REMARK  8 active torsions:
REMARK  status: ('A' for Active; 'I' for Inactive)
REMARK    1  A    between atoms: C_1  and  N_2
REMARK    2  A    between atoms: N_2  and  C_3
REMARK    3  A    between atoms: C_6  and  O_8
REMARK    4  A    between atoms: O_8  and  C_9
REMARK    5  A    between atoms: C_9  and  C_11
REMARK    6  A    between atoms: C_11  and  O_12
REMARK    7  A    between atoms: C_11  and  C_13
REMARK    8  A    between atoms: C_11  and  C_18
REMARK                            x       y       z     vdW  Elec       q    Type
REMARK                         _______ _______ _______ _____ _____    ______ ____
ROOT
ATOM      1  C   UNL     1       7.005   0.348  -3.888  0.00  0.00    +0.000 C 
ENDROOT
BRANCH   1   2
ATOM      2  C   UNL     1       7.458   1.265  -5.036  0.00  0.00    +0.000 A 
ATOM      3  C   UNL     1       8.233   0.861  -6.139  0.00  0.00    +0.000 A 
ATOM      4  C   UNL     1       8.598   1.764  -7.136  0.00  0.00    +0.000 A 
ATOM      5  C   UNL     1       8.126   3.068  -7.100  0.00  0.00    +0.000 A 
ATOM      6  C   UNL     1       7.362   3.498  -6.022  0.00  0.00    +0.000 A 
ATOM      7  C   UNL     1       7.063   2.617  -4.988  0.00  0.00    +0.000 A 
ENDBRANCH   1   2
BRANCH   1   8
ATOM      8  C   UNL     1       7.529  -1.114  -3.992  0.00  0.00    +0.000 C 
ATOM      9  C   UNL     1       8.428  -1.532  -2.836  0.00  0.00    +0.000 C 
ATOM     10  C   UNL     1       8.585  -3.020  -3.030  0.00  0.00    +0.000 C 
ATOM     11  C   UNL     1       7.220  -3.482  -3.528  0.00  0.00    +0.000 C 
ATOM     12  C   UNL     1       6.534  -2.271  -4.164  0.00  0.00    +0.000 C 
ENDBRANCH   1   8
BRANCH   1  13
ATOM     13  C   UNL     1       5.455   0.396  -3.746  0.00  0.00    +0.000 C 
ATOM     14  O   UNL     1       4.672   0.875  -4.567  0.00  0.00    +0.000 OA
BRANCH  13  15
ATOM     15  O   UNL     1       5.016  -0.142  -2.548  0.00  0.00    +0.000 OA
BRANCH  15  21
ATOM     16  C   UNL     1       0.993   0.093  -0.200  0.00  0.00    +0.000 C 
ATOM     17  N   UNL     1       2.524   0.103  -0.186  0.00  0.00    +0.000 N 
ATOM     18  C   UNL     1       2.919  -0.161   1.262  0.00  0.00    +0.000 C 
ATOM     19  C   UNL     1       3.071   1.430  -0.718  0.00  0.00    +0.000 C 
ATOM     20  C   UNL     1       3.066   1.258  -2.222  0.00  0.00    +0.000 C 
ATOM     21  C   UNL     1       3.572  -0.161  -2.432  0.00  0.00    +0.000 C 
ATOM     22  C   UNL     1       3.119  -0.944  -1.177  0.00  0.00    +0.000 C 
ENDBRANCH  15  21
ENDBRANCH  13  15
ENDBRANCH   1  13
BRANCH   1  23
ATOM     23  O   UNL     1       7.557   0.996  -2.715  0.00  0.00    +0.000 OA
ATOM     24  H   UNL     1       7.344   0.470  -1.930  0.00  0.00    +0.000 HD
ENDBRANCH   1  23
TORSDOF 6
