REMARK  Name = Glycerol phenylbutyrate
REMARK  20 active torsions:
REMARK  status: ('A' for Active; 'I' for Inactive)
REMARK    1  A    between atoms: C_2  and  C_3
REMARK    2  A    between atoms: C_2  and  O_12
REMARK    3  A    between atoms: C_3  and  C_4
REMARK    4  A    between atoms: C_4  and  C_5
REMARK    5  A    between atoms: C_5  and  C_6
REMARK    6  A    between atoms: O_12  and  C_13
REMARK    7  A    between atoms: C_13  and  C_14
REMARK    8  A    between atoms: C_14  and  C_15
REMARK    9  A    between atoms: C_14  and  O_28
REMARK   10  A    between atoms: C_15  and  O_16
REMARK   11  A    between atoms: O_16  and  C_17
REMARK   12  A    between atoms: C_17  and  C_19
REMARK   13  A    between atoms: C_19  and  C_20
REMARK   14  A    between atoms: C_20  and  C_21
REMARK   15  A    between atoms: C_21  and  C_22
REMARK   16  A    between atoms: O_28  and  C_29
REMARK   17  A    between atoms: C_29  and  C_31
REMARK   18  A    between atoms: C_31  and  C_32
REMARK   19  A    between atoms: C_32  and  C_33
REMARK   20  A    between atoms: C_33  and  C_34
REMARK                            x       y       z     vdW  Elec       q    Type
REMARK                         _______ _______ _______ _____ _____    ______ ____
ROOT
ATOM      1  C   UNL     1       4.972   2.514  -0.714  0.00  0.00    +0.000 C 
ENDROOT
BRANCH   1   2
ATOM      2  C   UNL     1       4.494   1.098  -0.331  0.00  0.00    +0.000 C 
BRANCH   2   3
ATOM      3  O   UNL     1       3.058   1.036  -0.397  0.00  0.00    +0.000 OA
BRANCH   3   5
ATOM      4  O   UNL     1       1.108   0.032   0.033  0.00  0.00    +0.000 OA
ATOM      5  C   UNL     1       2.335  -0.028   0.009  0.00  0.00    +0.000 C 
BRANCH   5   6
ATOM      6  C   UNL     1       3.108  -1.265   0.400  0.00  0.00    +0.000 C 
BRANCH   6   7
ATOM      7  C   UNL     1       2.131  -2.379   0.749  0.00  0.00    +0.000 C 
BRANCH   7   8
ATOM      8  C   UNL     1       2.839  -3.665   1.149  0.00  0.00    +0.000 C 
BRANCH   8   9
ATOM      9  C   UNL     1       1.883  -4.777   1.504  0.00  0.00    +0.000 A 
ATOM     10  C   UNL     1       0.653  -4.531   2.136  0.00  0.00    +0.000 A 
ATOM     11  C   UNL     1      -0.135  -5.582   2.596  0.00  0.00    +0.000 A 
ATOM     12  C   UNL     1       0.258  -6.894   2.360  0.00  0.00    +0.000 A 
ATOM     13  C   UNL     1       1.459  -7.155   1.703  0.00  0.00    +0.000 A 
ATOM     14  C   UNL     1       2.274  -6.103   1.288  0.00  0.00    +0.000 A 
ENDBRANCH   8   9
ENDBRANCH   7   8
ENDBRANCH   6   7
ENDBRANCH   5   6
ENDBRANCH   3   5
ENDBRANCH   2   3
ENDBRANCH   1   2
BRANCH   1  15
ATOM     15  C   UNL     1       4.391   3.565   0.261  0.00  0.00    +0.000 C 
BRANCH  15  16
ATOM     16  O   UNL     1       2.953   3.585   0.238  0.00  0.00    +0.000 OA
BRANCH  16  17
ATOM     17  C   UNL     1       2.398   4.477   1.100  0.00  0.00    +0.000 C 
ATOM     18  O   UNL     1       3.050   5.220   1.831  0.00  0.00    +0.000 OA
BRANCH  17  19
ATOM     19  C   UNL     1       0.886   4.421   1.050  0.00  0.00    +0.000 C 
BRANCH  19  20
ATOM     20  C   UNL     1       0.296   5.456   2.004  0.00  0.00    +0.000 C 
BRANCH  20  21
ATOM     21  C   UNL     1      -1.236   5.475   2.004  0.00  0.00    +0.000 C 
BRANCH  21  22
ATOM     22  C   UNL     1      -1.701   6.526   2.984  0.00  0.00    +0.000 A 
ATOM     23  C   UNL     1      -1.593   7.885   2.654  0.00  0.00    +0.000 A 
ATOM     24  C   UNL     1      -1.727   8.858   3.642  0.00  0.00    +0.000 A 
ATOM     25  C   UNL     1      -2.073   8.490   4.941  0.00  0.00    +0.000 A 
ATOM     26  C   UNL     1      -2.260   7.145   5.259  0.00  0.00    +0.000 A 
ATOM     27  C   UNL     1      -2.068   6.165   4.286  0.00  0.00    +0.000 A 
ENDBRANCH  21  22
ENDBRANCH  20  21
ENDBRANCH  19  20
ENDBRANCH  17  19
ENDBRANCH  16  17
ENDBRANCH  15  16
ENDBRANCH   1  15
BRANCH   1  28
ATOM     28  O   UNL     1       6.431   2.510  -0.701  0.00  0.00    +0.000 OA
BRANCH  28  29
ATOM     29  C   UNL     1       7.029   3.645  -1.159  0.00  0.00    +0.000 C 
ATOM     30  O   UNL     1       6.412   4.630  -1.556  0.00  0.00    +0.000 OA
BRANCH  29  31
ATOM     31  C   UNL     1       8.544   3.557  -1.118  0.00  0.00    +0.000 C 
BRANCH  31  32
ATOM     32  C   UNL     1       9.108   4.912  -1.530  0.00  0.00    +0.000 C 
BRANCH  32  33
ATOM     33  C   UNL     1      10.635   5.006  -1.562  0.00  0.00    +0.000 C 
BRANCH  33  34
ATOM     34  C   UNL     1      11.108   6.393  -1.958  0.00  0.00    +0.000 A 
ATOM     35  C   UNL     1      12.377   6.591  -2.517  0.00  0.00    +0.000 A 
ATOM     36  C   UNL     1      12.844   7.889  -2.758  0.00  0.00    +0.000 A 
ATOM     37  C   UNL     1      12.026   8.993  -2.516  0.00  0.00    +0.000 A 
ATOM     38  C   UNL     1      10.759   8.810  -1.986  0.00  0.00    +0.000 A 
ATOM     39  C   UNL     1      10.318   7.526  -1.697  0.00  0.00    +0.000 A 
ENDBRANCH  33  34
ENDBRANCH  32  33
ENDBRANCH  31  32
ENDBRANCH  29  31
ENDBRANCH  28  29
ENDBRANCH   1  28
TORSDOF 20
