REMARK  Name = Glymidine
REMARK  7 active torsions:
REMARK  status: ('A' for Active; 'I' for Inactive)
REMARK    1  A    between atoms: C_1  and  O_2
REMARK    2  A    between atoms: O_2  and  C_3
REMARK    3  A    between atoms: C_3  and  C_4
REMARK    4  A    between atoms: C_4  and  O_5
REMARK    5  A    between atoms: O_5  and  C_6
REMARK    6  A    between atoms: N_10  and  S_11
REMARK    7  A    between atoms: S_11  and  C_14
REMARK                            x       y       z     vdW  Elec       q    Type
REMARK                         _______ _______ _______ _____ _____    ______ ____
ROOT
ATOM      1  C   UNL     1       6.242   2.104  -2.100  0.00  0.00    +0.000 A 
ATOM      2  C   UNL     1       7.163   1.082  -2.194  0.00  0.00    +0.000 A 
ATOM      3  N   UNL     1       8.502   1.271  -2.371  0.00  0.00    +0.000 NA
ATOM      4  C   UNL     1       8.905   2.549  -2.464  0.00  0.00    +0.000 A 
ATOM      5  N   UNL     1      10.281   2.717  -2.661  0.00  0.00    +0.000 N 
ATOM      6  N   UNL     1       8.103   3.610  -2.424  0.00  0.00    +0.000 NA
ATOM      7  C   UNL     1       6.785   3.361  -2.250  0.00  0.00    +0.000 A 
ATOM      8  H   UNL     1      10.828   1.873  -2.640  0.00  0.00    +0.000 HD
ENDROOT
BRANCH   5   9
ATOM      9  S   UNL     1      10.907   4.253  -2.743  0.00  0.00    +0.000 S 
ATOM     10  O   UNL     1      10.460   4.866  -3.979  0.00  0.00    +0.000 OA
ATOM     11  O   UNL     1      10.723   4.894  -1.459  0.00  0.00    +0.000 OA
BRANCH   9  12
ATOM     12  C   UNL     1      12.692   4.109  -2.917  0.00  0.00    +0.000 A 
ATOM     13  C   UNL     1      13.358   2.885  -2.956  0.00  0.00    +0.000 A 
ATOM     14  C   UNL     1      14.759   2.858  -2.929  0.00  0.00    +0.000 A 
ATOM     15  C   UNL     1      15.495   4.043  -2.956  0.00  0.00    +0.000 A 
ATOM     16  C   UNL     1      14.834   5.269  -2.966  0.00  0.00    +0.000 A 
ATOM     17  C   UNL     1      13.435   5.305  -2.935  0.00  0.00    +0.000 A 
ENDBRANCH   9  12
ENDBRANCH   5   9
BRANCH   1  18
ATOM     18  O   UNL     1       4.892   1.988  -1.977  0.00  0.00    +0.000 OA
BRANCH  18  19
ATOM     19  C   UNL     1       4.432   1.031  -1.013  0.00  0.00    +0.000 C 
BRANCH  19  20
ATOM     20  C   UNL     1       2.899   1.036  -1.006  0.00  0.00    +0.000 C 
BRANCH  20  22
ATOM     21  C   UNL     1       0.980   0.095  -0.023  0.00  0.00    +0.000 C 
ATOM     22  O   UNL     1       2.405   0.107  -0.040  0.00  0.00    +0.000 OA
ENDBRANCH  20  22
ENDBRANCH  19  20
ENDBRANCH  18  19
ENDBRANCH   1  18
TORSDOF 6
