REMARK  Name = Granisetron
REMARK  4 active torsions:
REMARK  status: ('A' for Active; 'I' for Inactive)
REMARK    1  A    between atoms: C_1  and  N_2
REMARK    2  A    between atoms: C_4  and  C_5
REMARK    3  A    between atoms: N_7  and  C_8
REMARK    4  A    between atoms: N_16  and  C_17
REMARK                            x       y       z     vdW  Elec       q    Type
REMARK                         _______ _______ _______ _____ _____    ______ ____
ROOT
ATOM      1  C   UNL     1      -0.961   3.208  -0.010  0.00  0.00    +0.000 C 
ATOM      2  O   UNL     1       0.078   3.870  -0.049  0.00  0.00    +0.000 OA
ATOM      3  N   UNL     1      -2.204   3.819   0.043  0.00  0.00    +0.000 N 
ATOM      4  H   UNL     1      -3.017   3.212   0.070  0.00  0.00    +0.000 HD
ENDROOT
BRANCH   1   8
ATOM      5  C   UNL     1      -2.385  -1.478  -0.054  0.00  0.00    +0.000 C 
ATOM      6  N   UNL     1      -1.514  -0.325   0.003  0.00  0.00    +0.000 N 
ATOM      7  N   UNL     1      -2.026   0.935   0.015  0.00  0.00    +0.000 NA
ATOM      8  C   UNL     1      -0.929   1.727  -0.001  0.00  0.00    +0.000 A 
ATOM      9  C   UNL     1       0.271   0.942  -0.007  0.00  0.00    +0.000 A 
ATOM     10  C   UNL     1      -0.143  -0.383   0.014  0.00  0.00    +0.000 A 
ATOM     11  C   UNL     1       0.761  -1.459   0.031  0.00  0.00    +0.000 A 
ATOM     12  C   UNL     1       2.128  -1.159   0.021  0.00  0.00    +0.000 A 
ATOM     13  C   UNL     1       2.570   0.160  -0.014  0.00  0.00    +0.000 A 
ATOM     14  C   UNL     1       1.655   1.218  -0.027  0.00  0.00    +0.000 A 
ENDBRANCH   1   8
BRANCH   3  15
ATOM     15  C   UNL     1      -2.333   5.284   0.075  0.00  0.00    +0.000 C 
ATOM     16  C   UNL     1      -1.740   5.878   1.368  0.00  0.00    +0.000 C 
ATOM     17  C   UNL     1      -2.004   7.394   1.520  0.00  0.00    +0.000 C 
ATOM     18  C   UNL     1      -2.836   7.685   2.787  0.00  0.00    +0.000 C 
ATOM     19  C   UNL     1      -4.265   7.157   2.668  0.00  0.00    +0.000 C 
ATOM     20  C   UNL     1      -4.898   7.566   1.339  0.00  0.00    +0.000 C 
ATOM     21  C   UNL     1      -3.973   7.274   0.138  0.00  0.00    +0.000 C 
ATOM     22  C   UNL     1      -3.793   5.746  -0.086  0.00  0.00    +0.000 C 
ATOM     23  N   UNL     1      -2.653   7.901   0.301  0.00  0.00    +0.000 NA
ATOM     24  C   UNL     1      -2.672   9.358   0.222  0.00  0.00    +0.000 C 
ENDBRANCH   3  15
TORSDOF 2
