REMARK  Name = Grepafloxacin
REMARK  6 active torsions:
REMARK  status: ('A' for Active; 'I' for Inactive)
REMARK    1  A    between atoms: C_1  and  C_2
REMARK    2  A    between atoms: N_4  and  C_8
REMARK    3  A    between atoms: C_11  and  C_12
REMARK    4  A    between atoms: C_16  and  C_24
REMARK    5  A    between atoms: N_18  and  C_19
REMARK    6  A    between atoms: C_24  and  O_25
REMARK                            x       y       z     vdW  Elec       q    Type
REMARK                         _______ _______ _______ _____ _____    ______ ____
ROOT
ATOM      1  C   UNL     1       1.894  -2.863  -2.116  0.00  0.00    +0.000 A 
ATOM      2  C   UNL     1       2.274  -3.847  -3.033  0.00  0.00    +0.000 A 
ATOM      3  F   UNL     1       3.487  -3.763  -3.606  0.00  0.00    +0.000 F 
ATOM      4  C   UNL     1       1.459  -4.945  -3.332  0.00  0.00    +0.000 A 
ATOM      5  C   UNL     1       1.966  -5.988  -4.286  0.00  0.00    +0.000 C 
ATOM      6  C   UNL     1       0.188  -5.042  -2.721  0.00  0.00    +0.000 A 
ATOM      7  C   UNL     1      -0.713  -6.193  -3.021  0.00  0.00    +0.000 A 
ATOM      8  O   UNL     1      -0.351  -7.076  -3.788  0.00  0.00    +0.000 OA
ATOM      9  C   UNL     1      -2.048  -6.268  -2.378  0.00  0.00    +0.000 A 
ATOM     10  C   UNL     1      -2.346  -5.253  -1.553  0.00  0.00    +0.000 A 
ATOM     11  N   UNL     1      -1.562  -4.153  -1.247  0.00  0.00    +0.000 N 
ATOM     12  C   UNL     1      -0.253  -4.062  -1.815  0.00  0.00    +0.000 A 
ATOM     13  C   UNL     1       0.633  -3.014  -1.516  0.00  0.00    +0.000 A 
ENDROOT
BRANCH   1  17
ATOM     14  C   UNL     1       1.057   0.028   0.022  0.00  0.00    +0.000 C 
ATOM     15  C   UNL     1       2.584  -0.023  -0.084  0.00  0.00    +0.000 C 
ATOM     16  C   UNL     1       3.074  -1.456  -0.428  0.00  0.00    +0.000 C 
ATOM     17  N   UNL     1       2.714  -1.800  -1.804  0.00  0.00    +0.000 N 
ATOM     18  C   UNL     1       3.175  -0.844  -2.819  0.00  0.00    +0.000 C 
ATOM     19  C   UNL     1       2.706   0.589  -2.441  0.00  0.00    +0.000 C 
ATOM     20  N   UNL     1       3.072   0.982  -1.060  0.00  0.00    +0.000 NA
ATOM     21  H   UNL     1       2.674   1.894  -0.844  0.00  0.00    +0.000 HD
ENDBRANCH   1  17
BRANCH  11  22
ATOM     22  C   UNL     1      -2.069  -3.136  -0.281  0.00  0.00    +0.000 C 
ATOM     23  C   UNL     1      -3.480  -3.054   0.244  0.00  0.00    +0.000 C 
ATOM     24  C   UNL     1      -2.374  -3.536   1.141  0.00  0.00    +0.000 C 
ENDBRANCH  11  22
BRANCH   9  25
ATOM     25  C   UNL     1      -2.940  -7.420  -2.674  0.00  0.00    +0.000 C 
ATOM     26  O   UNL     1      -2.644  -8.337  -3.432  0.00  0.00    +0.000 OA
BRANCH  25  27
ATOM     27  O   UNL     1      -4.144  -7.438  -2.066  0.00  0.00    +0.000 OA
ATOM     28  H   UNL     1      -4.386  -6.717  -1.469  0.00  0.00    +0.000 HD
ENDBRANCH  25  27
ENDBRANCH   9  25
TORSDOF 4
