REMARK  Name = Griseofulvin
REMARK  7 active torsions:
REMARK  status: ('A' for Active; 'I' for Inactive)
REMARK    1  A    between atoms: C_1  and  O_2
REMARK    2  A    between atoms: O_2  and  C_3
REMARK    3  A    between atoms: C_5  and  O_6
REMARK    4  A    between atoms: O_6  and  C_7
REMARK    5  A    between atoms: C_16  and  C_17
REMARK    6  A    between atoms: C_22  and  O_23
REMARK    7  A    between atoms: O_23  and  C_24
REMARK                            x       y       z     vdW  Elec       q    Type
REMARK                         _______ _______ _______ _____ _____    ______ ____
ROOT
ATOM      1  C   UNL     1       3.139   0.471  -1.071  0.00  0.00    +0.000 A 
ATOM      2  C   UNL     1       4.302  -0.215  -1.474  0.00  0.00    +0.000 A 
ATOM      3  C   UNL     1       5.112   0.242  -2.534  0.00  0.00    +0.000 A 
ATOM      4  C   UNL     1       4.754   1.423  -3.203  0.00  0.00    +0.000 A 
ATOM      5 CL   UNL     1       5.721   2.067  -4.484  0.00  0.00    +0.000 Cl
ATOM      6  C   UNL     1       3.602   2.094  -2.807  0.00  0.00    +0.000 A 
ATOM      7  C   UNL     1       2.813   1.625  -1.762  0.00  0.00    +0.000 A 
ATOM      8  C   UNL     1       1.779   2.628  -1.613  0.00  0.00    +0.000 C 
ATOM      9  O   UNL     1       0.923   2.695  -0.747  0.00  0.00    +0.000 OA
ATOM     10  C   UNL     1       1.972   3.660  -2.698  0.00  0.00    +0.000 C 
ATOM     11  O   UNL     1       3.181   3.273  -3.387  0.00  0.00    +0.000 OA
ATOM     12  C   UNL     1       2.161   5.069  -2.088  0.00  0.00    +0.000 C 
ATOM     13  C   UNL     1       3.247   5.125  -1.003  0.00  0.00    +0.000 C 
ATOM     14  C   UNL     1       0.851   5.621  -1.514  0.00  0.00    +0.000 C 
ATOM     15  C   UNL     1      -0.313   5.477  -2.460  0.00  0.00    +0.000 C 
ATOM     16  O   UNL     1      -1.327   6.163  -2.353  0.00  0.00    +0.000 OA
ATOM     17  C   UNL     1      -0.269   4.440  -3.511  0.00  0.00    +0.000 C 
ATOM     18  C   UNL     1       0.761   3.584  -3.628  0.00  0.00    +0.000 C 
ENDROOT
BRANCH   1  20
ATOM     19  C   UNL     1       1.120  -0.115   0.049  0.00  0.00    +0.000 C 
ATOM     20  O   UNL     1       2.540  -0.041   0.042  0.00  0.00    +0.000 OA
ENDBRANCH   1  20
BRANCH   3  21
ATOM     21  O   UNL     1       6.254  -0.390  -2.959  0.00  0.00    +0.000 OA
ATOM     22  C   UNL     1       6.629  -1.594  -2.300  0.00  0.00    +0.000 C 
ENDBRANCH   3  21
BRANCH  18  23
ATOM     23  O   UNL     1       0.817   2.560  -4.565  0.00  0.00    +0.000 OA
ATOM     24  C   UNL     1      -0.278   2.453  -5.474  0.00  0.00    +0.000 C 
ENDBRANCH  18  23
TORSDOF 3
