REMARK  Name = Guaifenesin
REMARK  8 active torsions:
REMARK  status: ('A' for Active; 'I' for Inactive)
REMARK    1  A    between atoms: C_1  and  O_2
REMARK    2  A    between atoms: O_2  and  C_3
REMARK    3  A    between atoms: C_8  and  O_9
REMARK    4  A    between atoms: O_9  and  C_10
REMARK    5  A    between atoms: C_10  and  C_11
REMARK    6  A    between atoms: C_11  and  O_12
REMARK    7  A    between atoms: C_11  and  C_13
REMARK    8  A    between atoms: C_13  and  O_14
REMARK                            x       y       z     vdW  Elec       q    Type
REMARK                         _______ _______ _______ _____ _____    ______ ____
ROOT
ATOM      1  C   UNL     1       3.072   0.783  -0.865  0.00  0.00    +0.000 A 
ATOM      2  C   UNL     1       4.184   0.338  -1.620  0.00  0.00    +0.000 A 
ATOM      3  C   UNL     1       4.878   1.206  -2.473  0.00  0.00    +0.000 A 
ATOM      4  C   UNL     1       4.454   2.511  -2.632  0.00  0.00    +0.000 A 
ATOM      5  C   UNL     1       3.361   2.977  -1.890  0.00  0.00    +0.000 A 
ATOM      6  C   UNL     1       2.687   2.143  -0.977  0.00  0.00    +0.000 A 
ENDROOT
BRANCH   1   8
ATOM      7  C   UNL     1       1.354  -0.697   0.015  0.00  0.00    +0.000 C 
ATOM      8  O   UNL     1       2.672  -0.147   0.076  0.00  0.00    +0.000 OA
ENDBRANCH   1   8
BRANCH   6   9
ATOM      9  O   UNL     1       1.742   2.882  -0.264  0.00  0.00    +0.000 OA
BRANCH   9  10
ATOM     10  C   UNL     1       0.895   2.051   0.490  0.00  0.00    +0.000 C 
BRANCH  10  11
ATOM     11  C   UNL     1      -0.324   2.600   1.225  0.00  0.00    +0.000 C 
BRANCH  11  12
ATOM     12  O   UNL     1      -1.323   2.975   0.267  0.00  0.00    +0.000 OA
ATOM     13  H   UNL     1      -1.576   2.174  -0.228  0.00  0.00    +0.000 HD
ENDBRANCH  11  12
BRANCH  11  14
ATOM     14  C   UNL     1      -0.910   1.480   2.133  0.00  0.00    +0.000 C 
BRANCH  14  15
ATOM     15  O   UNL     1      -2.042   1.933   2.866  0.00  0.00    +0.000 OA
ATOM     16  H   UNL     1      -1.815   2.801   3.241  0.00  0.00    +0.000 HD
ENDBRANCH  14  15
ENDBRANCH  11  14
ENDBRANCH  10  11
ENDBRANCH   9  10
ENDBRANCH   6   9
TORSDOF 7
