REMARK  Name = Guaiacol
REMARK  3 active torsions:
REMARK  status: ('A' for Active; 'I' for Inactive)
REMARK    1  A    between atoms: C_1  and  O_2
REMARK    2  A    between atoms: O_2  and  C_3
REMARK    3  A    between atoms: C_4  and  O_5
REMARK                            x       y       z     vdW  Elec       q    Type
REMARK                         _______ _______ _______ _____ _____    ______ ____
ROOT
ATOM      1  C   UNL     1       3.041   1.067  -0.033  0.00  0.00    +0.000 A 
ATOM      2  C   UNL     1       4.440   1.018  -0.049  0.00  0.00    +0.000 A 
ATOM      3  C   UNL     1       5.208   2.177  -0.071  0.00  0.00    +0.000 A 
ATOM      4  C   UNL     1       4.572   3.418  -0.074  0.00  0.00    +0.000 A 
ATOM      5  C   UNL     1       3.180   3.486  -0.049  0.00  0.00    +0.000 A 
ATOM      6  C   UNL     1       2.414   2.315  -0.028  0.00  0.00    +0.000 A 
ENDROOT
BRANCH   1   8
ATOM      7  C   UNL     1       0.978  -0.103  -0.042  0.00  0.00    +0.000 C 
ATOM      8  O   UNL     1       2.402  -0.148  -0.024  0.00  0.00    +0.000 OA
ENDBRANCH   1   8
BRANCH   2   9
ATOM      9  O   UNL     1       5.098  -0.183  -0.041  0.00  0.00    +0.000 OA
ATOM     10  H   UNL     1       4.396  -0.860  -0.013  0.00  0.00    +0.000 HD
ENDBRANCH   2   9
TORSDOF 2
