REMARK  Name = Guanfacine
REMARK  2 active torsions:
REMARK  status: ('A' for Active; 'I' for Inactive)
REMARK    1  A    between atoms: C_5  and  C_7
REMARK    2  A    between atoms: C_7  and  C_8
REMARK                            x       y       z     vdW  Elec       q    Type
REMARK                         _______ _______ _______ _____ _____    ______ ____
ROOT
ATOM      1  N   UNL     1       1.068  -0.091   0.009  0.00  0.00    +0.000 N 
ATOM      2  C   UNL     1       2.412  -0.038  -0.040  0.00  0.00    +0.000 C 
ATOM      3  N   UNL     1       2.989   0.950  -0.626  0.00  0.00    +0.000 NA
ATOM      4  N   UNL     1       3.168  -1.027   0.545  0.00  0.00    +0.000 N 
ATOM      5  C   UNL     1       4.542  -1.143   0.351  0.00  0.00    +0.000 C 
ATOM      6  O   UNL     1       5.143  -0.602  -0.583  0.00  0.00    +0.000 OA
ATOM      7  H   UNL     1       0.534   0.623  -0.473  0.00  0.00    +0.000 HD
ATOM      8  H   UNL     1       0.538  -0.843   0.421  0.00  0.00    +0.000 HD
ATOM      9  H   UNL     1       2.331   1.598  -1.044  0.00  0.00    +0.000 HD
ATOM     10  H   UNL     1       2.685  -1.741   1.067  0.00  0.00    +0.000 HD
ENDROOT
BRANCH   5  11
ATOM     11  C   UNL     1       5.305  -2.119   1.258  0.00  0.00    +0.000 C 
BRANCH  11  12
ATOM     12  C   UNL     1       6.829  -1.932   1.195  0.00  0.00    +0.000 A 
ATOM     13  C   UNL     1       7.706  -3.032   1.075  0.00  0.00    +0.000 A 
ATOM     14 CL   UNL     1       7.152  -4.671   1.136  0.00  0.00    +0.000 Cl
ATOM     15  C   UNL     1       9.094  -2.854   0.933  0.00  0.00    +0.000 A 
ATOM     16  C   UNL     1       9.641  -1.578   0.878  0.00  0.00    +0.000 A 
ATOM     17  C   UNL     1       8.807  -0.479   1.027  0.00  0.00    +0.000 A 
ATOM     18  C   UNL     1       7.433  -0.652   1.244  0.00  0.00    +0.000 A 
ATOM     19 CL   UNL     1       6.571   0.793   1.667  0.00  0.00    +0.000 Cl
ENDBRANCH  11  12
ENDBRANCH   5  11
TORSDOF 2
