REMARK  Name = Guanoxan
REMARK  2 active torsions:
REMARK  status: ('A' for Active; 'I' for Inactive)
REMARK    1  A    between atoms: N_4  and  C_5
REMARK    2  A    between atoms: C_5  and  C_6
REMARK                            x       y       z     vdW  Elec       q    Type
REMARK                         _______ _______ _______ _____ _____    ______ ____
ROOT
ATOM      1  C   UNL     1       5.229   1.323  -2.347  0.00  0.00    +0.000 C 
ATOM      2  C   UNL     1       6.353   0.514  -2.995  0.00  0.00    +0.000 C 
ATOM      3  O   UNL     1       7.434   0.291  -2.085  0.00  0.00    +0.000 OA
ATOM      4  C   UNL     1       7.763   1.436  -1.405  0.00  0.00    +0.000 A 
ATOM      5  C   UNL     1       6.948   2.573  -1.378  0.00  0.00    +0.000 A 
ATOM      6  O   UNL     1       5.718   2.633  -1.991  0.00  0.00    +0.000 OA
ATOM      7  C   UNL     1       7.357   3.705  -0.675  0.00  0.00    +0.000 A 
ATOM      8  C   UNL     1       8.569   3.692   0.019  0.00  0.00    +0.000 A 
ATOM      9  C   UNL     1       9.368   2.548   0.012  0.00  0.00    +0.000 A 
ATOM     10  C   UNL     1       8.962   1.416  -0.696  0.00  0.00    +0.000 A 
ENDROOT
BRANCH   1  11
ATOM     11  C   UNL     1       4.662   0.599  -1.111  0.00  0.00    +0.000 C 
BRANCH  11  15
ATOM     12  N   UNL     1       1.237  -0.013  -0.097  0.00  0.00    +0.000 N 
ATOM     13  C   UNL     1       2.573  -0.039  -0.039  0.00  0.00    +0.000 C 
ATOM     14  N   UNL     1       3.210  -0.606   0.925  0.00  0.00    +0.000 NA
ATOM     15  N   UNL     1       3.202   0.553  -1.075  0.00  0.00    +0.000 N 
ATOM     16  H   UNL     1       0.686  -0.428   0.640  0.00  0.00    +0.000 HD
ATOM     17  H   UNL     1       0.737   0.445  -0.842  0.00  0.00    +0.000 HD
ATOM     18  H   UNL     1       2.552  -0.995   1.596  0.00  0.00    +0.000 HD
ATOM     19  H   UNL     1       2.680   1.054  -1.778  0.00  0.00    +0.000 HD
ENDBRANCH  11  15
ENDBRANCH   1  11
TORSDOF 2
