REMARK  Name = Guanethidine
REMARK  3 active torsions:
REMARK  status: ('A' for Active; 'I' for Inactive)
REMARK    1  A    between atoms: N_4  and  C_5
REMARK    2  A    between atoms: C_5  and  C_6
REMARK    3  A    between atoms: C_6  and  N_7
REMARK                            x       y       z     vdW  Elec       q    Type
REMARK                         _______ _______ _______ _____ _____    ______ ____
ROOT
ATOM      1  C   UNL     1       4.546  -1.134   0.165  0.00  0.00    +0.000 C 
ENDROOT
BRANCH   1   5
ATOM      2  N   UNL     1       1.209   0.074   0.023  0.00  0.00    +0.000 N 
ATOM      3  C   UNL     1       2.547  -0.009   0.051  0.00  0.00    +0.000 C 
ATOM      4  N   UNL     1       3.142   1.194  -0.125  0.00  0.00    +0.000 N 
ATOM      5  N   UNL     1       3.087  -1.161   0.205  0.00  0.00    +0.000 NA
ATOM      6  H   UNL     1       0.694   0.930  -0.052  0.00  0.00    +0.000 HD
ATOM      7  H   UNL     1       0.711  -0.799   0.138  0.00  0.00    +0.000 HD
ATOM      8  H   UNL     1       2.623   2.054  -0.158  0.00  0.00    +0.000 HD
ATOM      9  H   UNL     1       4.148   1.276  -0.073  0.00  0.00    +0.000 HD
ENDBRANCH   1   5
BRANCH   1  10
ATOM     10  C   UNL     1       5.174  -2.530   0.220  0.00  0.00    +0.000 C 
BRANCH  10  11
ATOM     11  N   UNL     1       6.656  -2.526   0.157  0.00  0.00    +0.000 NA
ATOM     12  C   UNL     1       7.159  -3.785  -0.409  0.00  0.00    +0.000 C 
ATOM     13  C   UNL     1       8.616  -4.100  -0.047  0.00  0.00    +0.000 C 
ATOM     14  C   UNL     1       8.927  -3.846   1.434  0.00  0.00    +0.000 C 
ATOM     15  C   UNL     1       9.742  -2.569   1.669  0.00  0.00    +0.000 C 
ATOM     16  C   UNL     1       8.953  -1.282   1.425  0.00  0.00    +0.000 C 
ATOM     17  C   UNL     1       8.696  -1.042  -0.067  0.00  0.00    +0.000 C 
ATOM     18  C   UNL     1       7.250  -1.333  -0.457  0.00  0.00    +0.000 C 
ENDBRANCH  10  11
ENDBRANCH   1  10
TORSDOF 3
