REMARK  Name = Guanadrel
REMARK  2 active torsions:
REMARK  status: ('A' for Active; 'I' for Inactive)
REMARK    1  A    between atoms: N_4  and  C_5
REMARK    2  A    between atoms: C_5  and  C_6
REMARK                            x       y       z     vdW  Elec       q    Type
REMARK                         _______ _______ _______ _____ _____    ______ ____
ROOT
ATOM      1  C   UNL     1       4.958   2.307  -1.252  0.00  0.00    +0.000 C 
ATOM      2  C   UNL     1       3.934   2.793  -2.265  0.00  0.00    +0.000 C 
ATOM      3  O   UNL     1       4.609   2.936  -3.505  0.00  0.00    +0.000 OA
ATOM      4  C   UNL     1       5.999   2.874  -3.205  0.00  0.00    +0.000 C 
ATOM      5  C   UNL     1       6.515   4.315  -3.079  0.00  0.00    +0.000 C 
ATOM      6  C   UNL     1       6.342   5.086  -4.391  0.00  0.00    +0.000 C 
ATOM      7  C   UNL     1       6.984   4.357  -5.570  0.00  0.00    +0.000 C 
ATOM      8  C   UNL     1       6.527   2.903  -5.672  0.00  0.00    +0.000 C 
ATOM      9  C   UNL     1       6.711   2.156  -4.351  0.00  0.00    +0.000 C 
ATOM     10  O   UNL     1       6.184   2.149  -1.985  0.00  0.00    +0.000 OA
ENDROOT
BRANCH   1  11
ATOM     11  C   UNL     1       4.521   1.010  -0.559  0.00  0.00    +0.000 C 
BRANCH  11  15
ATOM     12  N   UNL     1       1.122  -0.052   0.026  0.00  0.00    +0.000 N 
ATOM     13  C   UNL     1       2.462  -0.039  -0.006  0.00  0.00    +0.000 C 
ATOM     14  N   UNL     1       3.025  -1.195   0.376  0.00  0.00    +0.000 N 
ATOM     15  N   UNL     1       3.065   1.020  -0.409  0.00  0.00    +0.000 NA
ATOM     16  H   UNL     1       0.574  -0.853   0.293  0.00  0.00    +0.000 HD
ATOM     17  H   UNL     1       0.641   0.725  -0.411  0.00  0.00    +0.000 HD
ATOM     18  H   UNL     1       2.498  -1.874   0.903  0.00  0.00    +0.000 HD
ATOM     19  H   UNL     1       4.024  -1.197   0.535  0.00  0.00    +0.000 HD
ENDBRANCH  11  15
ENDBRANCH   1  11
TORSDOF 2
