REMARK  Name = Guanabenz
REMARK  2 active torsions:
REMARK  status: ('A' for Active; 'I' for Inactive)
REMARK    1  A    between atoms: N_4  and  N_5
REMARK    2  A    between atoms: C_6  and  C_7
REMARK                            x       y       z     vdW  Elec       q    Type
REMARK                         _______ _______ _______ _____ _____    ______ ____
ROOT
ATOM      1  N   UNL     1       4.553  -0.044  -0.985  0.00  0.00    +0.000 NA
ATOM      2  C   UNL     1       5.183  -0.035  -2.118  0.00  0.00    +0.000 C 
ENDROOT
BRANCH   1   6
ATOM      3  N   UNL     1       1.181  -0.097   0.057  0.00  0.00    +0.000 N 
ATOM      4  C   UNL     1       2.525  -0.072  -0.017  0.00  0.00    +0.000 C 
ATOM      5  N   UNL     1       3.108  -0.064   1.198  0.00  0.00    +0.000 N 
ATOM      6  N   UNL     1       3.161  -0.050  -1.155  0.00  0.00    +0.000 NA
ATOM      7  H   UNL     1       0.682  -0.090   0.931  0.00  0.00    +0.000 HD
ATOM      8  H   UNL     1       0.657  -0.076  -0.805  0.00  0.00    +0.000 HD
ATOM      9  H   UNL     1       2.615  -0.144   2.070  0.00  0.00    +0.000 HD
ATOM     10  H   UNL     1       4.120  -0.115   1.183  0.00  0.00    +0.000 HD
ENDBRANCH   1   6
BRANCH   2  11
ATOM     11  C   UNL     1       6.665  -0.064  -2.168  0.00  0.00    +0.000 A 
ATOM     12  C   UNL     1       7.403  -0.916  -1.331  0.00  0.00    +0.000 A 
ATOM     13 CL   UNL     1       6.679  -2.070  -0.264  0.00  0.00    +0.000 Cl
ATOM     14  C   UNL     1       8.805  -0.906  -1.366  0.00  0.00    +0.000 A 
ATOM     15  C   UNL     1       9.487  -0.053  -2.228  0.00  0.00    +0.000 A 
ATOM     16  C   UNL     1       8.765   0.784  -3.075  0.00  0.00    +0.000 A 
ATOM     17  C   UNL     1       7.360   0.774  -3.056  0.00  0.00    +0.000 A 
ATOM     18 CL   UNL     1       6.560   1.858  -4.140  0.00  0.00    +0.000 Cl
ENDBRANCH   2  11
TORSDOF 2
