REMARK  Name = Guanidine
REMARK  0 active torsions:
REMARK  status: ('A' for Active; 'I' for Inactive)
REMARK                            x       y       z     vdW  Elec       q    Type
REMARK                         _______ _______ _______ _____ _____    ______ ____
ROOT
ATOM      1  N   UNL     1       1.190  -0.092  -0.046  0.00  0.00    +0.000 N 
ATOM      2  C   UNL     1       2.525  -0.060  -0.063  0.00  0.00    +0.000 C 
ATOM      3  N   UNL     1       3.123  -1.115   0.491  0.00  0.00    +0.000 N 
ATOM      4  N   UNL     1       3.220   0.894  -0.563  0.00  0.00    +0.000 NA
ATOM      5  H   UNL     1       0.684  -0.864   0.359  0.00  0.00    +0.000 HD
ATOM      6  H   UNL     1       0.647   0.661  -0.440  0.00  0.00    +0.000 HD
ATOM      7  H   UNL     1       2.640  -1.895   0.901  0.00  0.00    +0.000 HD
ATOM      8  H   UNL     1       4.134  -1.112   0.490  0.00  0.00    +0.000 HD
ATOM      9  H   UNL     1       2.593   1.606  -0.937  0.00  0.00    +0.000 HD
ENDROOT
TORSDOF 0
