REMARK  Name = Halazepam
REMARK  3 active torsions:
REMARK  status: ('A' for Active; 'I' for Inactive)
REMARK    1  A    between atoms: C_2  and  C_5
REMARK    2  A    between atoms: C_5  and  N_6
REMARK    3  A    between atoms: C_14  and  C_19
REMARK                            x       y       z     vdW  Elec       q    Type
REMARK                         _______ _______ _______ _____ _____    ______ ____
ROOT
ATOM      1  N   UNL     1       4.379  -0.975  -0.956  0.00  0.00    +0.000 N 
ATOM      2  C   UNL     1       5.098   0.252  -0.867  0.00  0.00    +0.000 A 
ATOM      3  C   UNL     1       6.232   0.425  -0.053  0.00  0.00    +0.000 A 
ATOM      4  C   UNL     1       6.796   1.705   0.091  0.00  0.00    +0.000 A 
ATOM      5  C   UNL     1       6.239   2.801  -0.562  0.00  0.00    +0.000 A 
ATOM      6 CL   UNL     1       6.926   4.362  -0.361  0.00  0.00    +0.000 Cl
ATOM      7  C   UNL     1       5.134   2.639  -1.383  0.00  0.00    +0.000 A 
ATOM      8  C   UNL     1       4.589   1.369  -1.554  0.00  0.00    +0.000 A 
ATOM      9  C   UNL     1       6.844  -0.692   0.721  0.00  0.00    +0.000 C 
ATOM     10  N   UNL     1       6.989  -1.898   0.288  0.00  0.00    +0.000 NA
ATOM     11  C   UNL     1       6.515  -2.246  -1.051  0.00  0.00    +0.000 C 
ATOM     12  C   UNL     1       4.996  -2.218  -1.083  0.00  0.00    +0.000 C 
ATOM     13  O   UNL     1       4.344  -3.252  -1.286  0.00  0.00    +0.000 OA
ENDROOT
BRANCH   9  14
ATOM     14  C   UNL     1       7.352  -0.409   2.095  0.00  0.00    +0.000 A 
ATOM     15  C   UNL     1       8.693  -0.677   2.390  0.00  0.00    +0.000 A 
ATOM     16  C   UNL     1       9.150  -0.551   3.702  0.00  0.00    +0.000 A 
ATOM     17  C   UNL     1       8.296  -0.070   4.694  0.00  0.00    +0.000 A 
ATOM     18  C   UNL     1       6.987   0.297   4.375  0.00  0.00    +0.000 A 
ATOM     19  C   UNL     1       6.496   0.084   3.084  0.00  0.00    +0.000 A 
ENDBRANCH   9  14
BRANCH   1  20
ATOM     20  C   UNL     1       2.898  -0.927  -0.933  0.00  0.00    +0.000 C 
BRANCH  20  22
ATOM     21  F   UNL     1       0.930  -0.135   0.143  0.00  0.00    +0.000 F 
ATOM     22  C   UNL     1       2.277  -0.009   0.131  0.00  0.00    +0.000 C 
ATOM     23  F   UNL     1       2.524   1.303  -0.079  0.00  0.00    +0.000 F 
ATOM     24  F   UNL     1       2.733  -0.308   1.368  0.00  0.00    +0.000 F 
ENDBRANCH  20  22
ENDBRANCH   1  20
TORSDOF 3
