REMARK  Name = Halcinonide
REMARK  7 active torsions:
REMARK  status: ('A' for Active; 'I' for Inactive)
REMARK    1  A    between atoms: C_6  and  C_7
REMARK    2  A    between atoms: C_6  and  C_8
REMARK    3  A    between atoms: C_10  and  C_11
REMARK    4  A    between atoms: C_11  and  C_13
REMARK    5  A    between atoms: C_15  and  C_16
REMARK    6  A    between atoms: C_18  and  O_19
REMARK    7  A    between atoms: C_32  and  C_33
REMARK                            x       y       z     vdW  Elec       q    Type
REMARK                         _______ _______ _______ _____ _____    ______ ____
ROOT
ATOM      1  C   UNL     1       1.869  -0.464  -0.379  0.00  0.00    +0.000 C 
ATOM      2  C   UNL     1       2.466  -0.183  -1.757  0.00  0.00    +0.000 C 
ATOM      3  C   UNL     1       4.058   0.033  -1.628  0.00  0.00    +0.000 C 
ATOM      4  O   UNL     1       5.024  -1.216  -1.439  0.00  0.00    +0.000 OA
ATOM      5  C   UNL     1       5.998  -0.982  -0.301  0.00  0.00    +0.000 C 
ATOM      6  C   UNL     1       6.382  -1.717   1.351  0.00  0.00    +0.000 C 
ATOM      7  C   UNL     1       7.284  -1.539  -0.771  0.00  0.00    +0.000 C 
ATOM      8  O   UNL     1       5.828   0.388  -0.138  0.00  0.00    +0.000 OA
ATOM      9  C   UNL     1       4.273   0.780  -0.205  0.00  0.00    +0.000 C 
ATOM     10  C   UNL     1       3.018  -0.749   0.467  0.00  0.00    +0.000 C 
ATOM     11  C   UNL     1       2.127  -1.252   1.978  0.00  0.00    +0.000 C 
ATOM     12  C   UNL     1       4.028  -1.622   0.863  0.00  0.00    +0.000 C 
ATOM     13  C   UNL     1       4.569  -0.368   1.721  0.00  0.00    +0.000 C 
ATOM     14  C   UNL     1       3.909   0.860   1.494  0.00  0.00    +0.000 C 
ATOM     15  F   UNL     1       2.813   1.176  -0.046  0.00  0.00    +0.000 F 
ATOM     16  C   UNL     1       2.081   0.802   0.506  0.00  0.00    +0.000 C 
ATOM     17  C   UNL     1       1.625   2.584  -0.531  0.00  0.00    +0.000 C 
ATOM     18  C   UNL     1       2.410   4.232   0.332  0.00  0.00    +0.000 C 
ATOM     19  C   UNL     1       4.150   4.013   0.262  0.00  0.00    +0.000 C 
ATOM     20  C   UNL     1       4.879   4.946  -0.327  0.00  0.00    +0.000 C 
ATOM     21  C   UNL     1       4.490   5.900   0.665  0.00  0.00    +0.000 C 
ATOM     22  O   UNL     1       3.498   6.596   0.696  0.00  0.00    +0.000 OA
ATOM     23  C   UNL     1       5.686   5.789   1.510  0.00  0.00    +0.000 C 
ATOM     24  C   UNL     1       5.831   3.859   1.889  0.00  0.00    +0.000 C 
ATOM     25  C   UNL     1       5.135   2.514   0.792  0.00  0.00    +0.000 C 
ATOM     26  C   UNL     1       5.543   2.567  -0.832  0.00  0.00    +0.000 C 
ENDROOT
BRANCH   9  27
ATOM     27  C   UNL     1       3.282   2.341   1.154  0.00  0.00    +0.000 C 
ATOM     28  O   UNL     1       3.745   2.619   2.361  0.00  0.00    +0.000 OA
BRANCH  27  29
ATOM     29  C   UNL     1       1.704   2.526   1.511  0.00  0.00    +0.000 C 
ATOM     30 CL   UNL     1       1.215   2.589   3.111  0.00  0.00    +0.000 Cl
ENDBRANCH  27  29
ENDBRANCH   9  27
BRANCH  13  31
ATOM     31  O   UNL     1       4.565  -0.385   3.135  0.00  0.00    +0.000 OA
ATOM     32  H   UNL     1       3.651  -0.293   3.392  0.00  0.00    +0.000 HD
ENDBRANCH  13  31
TORSDOF 3
