REMARK  Name = Haloperidol
REMARK  7 active torsions:
REMARK  status: ('A' for Active; 'I' for Inactive)
REMARK    1  A    between atoms: O_1  and  C_2
REMARK    2  A    between atoms: C_2  and  C_20
REMARK    3  A    between atoms: N_5  and  C_6
REMARK    4  A    between atoms: C_6  and  C_7
REMARK    5  A    between atoms: C_7  and  C_8
REMARK    6  A    between atoms: C_8  and  C_9
REMARK    7  A    between atoms: C_9  and  C_11
REMARK                            x       y       z     vdW  Elec       q    Type
REMARK                         _______ _______ _______ _____ _____    ______ ____
ROOT
ATOM      1  C   UNL     1      -1.087  -0.019  -0.562  0.00  0.00    +0.000 C 
ATOM      2  C   UNL     1      -0.178  -1.259  -0.611  0.00  0.00    +0.000 C 
ATOM      3  C   UNL     1       0.970  -1.209   0.373  0.00  0.00    +0.000 C 
ATOM      4  N   UNL     1       1.733   0.024   0.166  0.00  0.00    +0.000 NA
ATOM      5  C   UNL     1       0.896   1.211   0.379  0.00  0.00    +0.000 C 
ATOM      6  C   UNL     1      -0.249   1.260  -0.613  0.00  0.00    +0.000 C 
ENDROOT
BRANCH   1   7
ATOM      7  C   UNL     1      -2.095  -0.005  -1.706  0.00  0.00    +0.000 A 
ATOM      8  C   UNL     1      -3.024   1.044  -1.820  0.00  0.00    +0.000 A 
ATOM      9  C   UNL     1      -3.926   1.081  -2.884  0.00  0.00    +0.000 A 
ATOM     10  C   UNL     1      -3.912   0.070  -3.842  0.00  0.00    +0.000 A 
ATOM     11 CL   UNL     1      -5.042   0.089  -5.136  0.00  0.00    +0.000 Cl
ATOM     12  C   UNL     1      -2.996  -0.967  -3.758  0.00  0.00    +0.000 A 
ATOM     13  C   UNL     1      -2.101  -1.004  -2.696  0.00  0.00    +0.000 A 
ENDBRANCH   1   7
BRANCH   1  14
ATOM     14  O   UNL     1      -1.838  -0.039   0.660  0.00  0.00    +0.000 OA
ATOM     15  H   UNL     1      -1.214  -0.057   1.403  0.00  0.00    +0.000 HD
ENDBRANCH   1  14
BRANCH   4  16
ATOM     16  C   UNL     1       2.912   0.021   1.032  0.00  0.00    +0.000 C 
BRANCH  16  17
ATOM     17  C   UNL     1       3.762   1.263   0.805  0.00  0.00    +0.000 C 
BRANCH  17  18
ATOM     18  C   UNL     1       4.983   1.273   1.701  0.00  0.00    +0.000 C 
BRANCH  18  19
ATOM     19  C   UNL     1       5.756   2.556   1.486  0.00  0.00    +0.000 C 
ATOM     20  O   UNL     1       5.393   3.456   0.727  0.00  0.00    +0.000 OA
BRANCH  19  21
ATOM     21  C   UNL     1       6.979   2.758   2.283  0.00  0.00    +0.000 A 
ATOM     22  C   UNL     1       7.896   1.718   2.464  0.00  0.00    +0.000 A 
ATOM     23  C   UNL     1       9.058   1.949   3.198  0.00  0.00    +0.000 A 
ATOM     24  C   UNL     1       9.289   3.210   3.742  0.00  0.00    +0.000 A 
ATOM     25  F   UNL     1      10.411   3.426   4.440  0.00  0.00    +0.000 F 
ATOM     26  C   UNL     1       8.380   4.248   3.568  0.00  0.00    +0.000 A 
ATOM     27  C   UNL     1       7.218   4.025   2.832  0.00  0.00    +0.000 A 
ENDBRANCH  19  21
ENDBRANCH  18  19
ENDBRANCH  17  18
ENDBRANCH  16  17
ENDBRANCH   4  16
TORSDOF 7
