REMARK  Name = Halothane
REMARK  1 active torsions:
REMARK  status: ('A' for Active; 'I' for Inactive)
REMARK    1  A    between atoms: C_2  and  C_5
REMARK                            x       y       z     vdW  Elec       q    Type
REMARK                         _______ _______ _______ _____ _____    ______ ____
ROOT
ATOM      1  C   UNL     1       2.684   0.697  -1.276  0.00  0.00    +0.000 C 
ATOM      2  F   UNL     1       2.229   0.075  -2.391  0.00  0.00    +0.000 F 
ATOM      3  F   UNL     1       2.234   1.974  -1.340  0.00  0.00    +0.000 F 
ATOM      4  F   UNL     1       4.033   0.740  -1.357  0.00  0.00    +0.000 F 
ENDROOT
BRANCH   1   5
ATOM      5  C   UNL     1       2.187   0.005  -0.017  0.00  0.00    +0.000 C 
ATOM      6 CL   UNL     1       2.728   0.817   1.475  0.00  0.00    +0.000 Cl
ATOM      7 BR   UNL     1       2.783  -1.856   0.045  0.00  0.00    +0.000 Br
ENDBRANCH   1   5
TORSDOF 1
