REMARK  Name = Haloprogin
REMARK  3 active torsions:
REMARK  status: ('A' for Active; 'I' for Inactive)
REMARK    1  A    between atoms: C_9  and  O_10
REMARK    2  A    between atoms: O_10  and  C_11
REMARK    3  A    between atoms: C_11  and  C_12
REMARK                            x       y       z     vdW  Elec       q    Type
REMARK                         _______ _______ _______ _____ _____    ______ ____
ROOT
ATOM      1 CL   UNL     1       3.374  -0.687  -0.006  0.00  0.00    +0.000 Cl
ATOM      2  C   UNL     1       1.786   0.007  -0.022  0.00  0.00    +0.000 A 
ATOM      3  C   UNL     1       0.772  -0.958  -0.034  0.00  0.00    +0.000 A 
ATOM      4  C   UNL     1      -0.570  -0.589  -0.026  0.00  0.00    +0.000 A 
ATOM      5 CL   UNL     1      -1.735  -1.863  -0.019  0.00  0.00    +0.000 Cl
ATOM      6  C   UNL     1      -0.913   0.761  -0.018  0.00  0.00    +0.000 A 
ATOM      7 CL   UNL     1      -2.560   1.283   0.002  0.00  0.00    +0.000 Cl
ATOM      8  C   UNL     1       0.096   1.735  -0.019  0.00  0.00    +0.000 A 
ATOM      9  C   UNL     1       1.460   1.376  -0.016  0.00  0.00    +0.000 A 
ENDROOT
BRANCH   9  10
ATOM     10  O   UNL     1       2.291   2.474  -0.004  0.00  0.00    +0.000 OA
BRANCH  10  11
ATOM     11  C   UNL     1       3.689   2.223   0.013  0.00  0.00    +0.000 C 
BRANCH  11  12
ATOM     12  C   UNL     1       4.502   3.507   0.033  0.00  0.00    +0.000 C 
ATOM     13  C   UNL     1       5.200   4.608   0.050  0.00  0.00    +0.000 C 
ATOM     14  I   UNL     1       6.311   6.361   0.077  0.00  0.00    +0.000 I 
ENDBRANCH  11  12
ENDBRANCH  10  11
ENDBRANCH   9  10
TORSDOF 3
