REMARK  Name = Halofantrine
REMARK  14 active torsions:
REMARK  status: ('A' for Active; 'I' for Inactive)
REMARK    1  A    between atoms: C_1  and  C_2
REMARK    2  A    between atoms: C_2  and  C_3
REMARK    3  A    between atoms: C_3  and  C_4
REMARK    4  A    between atoms: C_4  and  N_5
REMARK    5  A    between atoms: N_5  and  C_6
REMARK    6  A    between atoms: N_5  and  C_10
REMARK    7  A    between atoms: C_6  and  C_7
REMARK    8  A    between atoms: C_7  and  C_8
REMARK    9  A    between atoms: C_8  and  C_9
REMARK   10  A    between atoms: C_10  and  C_11
REMARK   11  A    between atoms: C_11  and  C_12
REMARK   12  A    between atoms: C_12  and  O_13
REMARK   13  A    between atoms: C_12  and  C_14
REMARK   14  A    between atoms: C_18  and  C_30
REMARK                            x       y       z     vdW  Elec       q    Type
REMARK                         _______ _______ _______ _____ _____    ______ ____
ROOT
ATOM      1  C   UNL     1       9.028  -0.018   5.616  0.00  0.00    +0.000 A 
ATOM      2  C   UNL     1       9.220   1.193   6.328  0.00  0.00    +0.000 A 
ATOM      3  C   UNL     1       8.934   2.453   5.754  0.00  0.00    +0.000 A 
ATOM      4  C   UNL     1       9.206   3.652   6.392  0.00  0.00    +0.000 A 
ATOM      5  C   UNL     1       9.703   3.638   7.676  0.00  0.00    +0.000 A 
ATOM      6  C   UNL     1       9.929   2.401   8.302  0.00  0.00    +0.000 A 
ATOM      7  C   UNL     1       9.700   1.150   7.655  0.00  0.00    +0.000 A 
ATOM      8  C   UNL     1       9.930  -0.116   8.305  0.00  0.00    +0.000 A 
ATOM      9  C   UNL     1      10.391  -0.230   9.634  0.00  0.00    +0.000 A 
ATOM     10  C   UNL     1      10.600  -1.459  10.253  0.00  0.00    +0.000 A 
ATOM     11 CL   UNL     1      11.165  -1.511  11.876  0.00  0.00    +0.000 Cl
ATOM     12  C   UNL     1      10.355  -2.635   9.568  0.00  0.00    +0.000 A 
ATOM     13  C   UNL     1       9.896  -2.571   8.257  0.00  0.00    +0.000 A 
ATOM     14 CL   UNL     1       9.610  -4.093   7.469  0.00  0.00    +0.000 Cl
ATOM     15  C   UNL     1       9.680  -1.328   7.601  0.00  0.00    +0.000 A 
ATOM     16  C   UNL     1       9.235  -1.242   6.277  0.00  0.00    +0.000 A 
ENDROOT
BRANCH   5  17
ATOM     17  C   UNL     1       9.961   4.933   8.391  0.00  0.00    +0.000 C 
ATOM     18  F   UNL     1       9.200   5.061   9.511  0.00  0.00    +0.000 F 
ATOM     19  F   UNL     1      11.254   5.062   8.788  0.00  0.00    +0.000 F 
ATOM     20  F   UNL     1       9.690   6.028   7.627  0.00  0.00    +0.000 F 
ENDBRANCH   5  17
BRANCH   1  21
ATOM     21  C   UNL     1       8.525  -0.100   4.183  0.00  0.00    +0.000 C 
BRANCH  21  22
ATOM     22  O   UNL     1       9.126   0.867   3.334  0.00  0.00    +0.000 OA
ATOM     23  H   UNL     1       8.502   1.599   3.214  0.00  0.00    +0.000 HD
ENDBRANCH  21  22
BRANCH  21  24
ATOM     24  C   UNL     1       7.000  -0.053   4.193  0.00  0.00    +0.000 C 
BRANCH  24  25
ATOM     25  C   UNL     1       6.411  -0.098   2.784  0.00  0.00    +0.000 C 
BRANCH  25  26
ATOM     26  N   UNL     1       4.928  -0.123   2.772  0.00  0.00    +0.000 NA
BRANCH  26  27
ATOM     27  C   UNL     1       4.496  -0.046   1.347  0.00  0.00    +0.000 C 
BRANCH  27  28
ATOM     28  C   UNL     1       2.995   0.110   1.151  0.00  0.00    +0.000 C 
BRANCH  28  30
ATOM     29  C   UNL     1       0.928   0.012  -0.162  0.00  0.00    +0.000 C 
ATOM     30  C   UNL     1       2.455   0.107  -0.259  0.00  0.00    +0.000 C 
ENDBRANCH  28  30
ENDBRANCH  27  28
ENDBRANCH  26  27
BRANCH  26  31
ATOM     31  C   UNL     1       4.447  -1.328   3.500  0.00  0.00    +0.000 C 
BRANCH  31  32
ATOM     32  C   UNL     1       2.948  -1.407   3.720  0.00  0.00    +0.000 C 
BRANCH  32  33
ATOM     33  C   UNL     1       2.434  -2.630   4.438  0.00  0.00    +0.000 C 
ATOM     34  C   UNL     1       0.910  -2.598   4.321  0.00  0.00    +0.000 C 
ENDBRANCH  32  33
ENDBRANCH  31  32
ENDBRANCH  26  31
ENDBRANCH  25  26
ENDBRANCH  24  25
ENDBRANCH  21  24
ENDBRANCH   1  21
TORSDOF 12
