REMARK  Name = Hesperidin
REMARK  17 active torsions:
REMARK  status: ('A' for Active; 'I' for Inactive)
REMARK    1  A    between atoms: C_1  and  O_2
REMARK    2  A    between atoms: O_2  and  C_3
REMARK    3  A    between atoms: C_6  and  C_10
REMARK    4  A    between atoms: C_8  and  O_9
REMARK    5  A    between atoms: C_18  and  O_19
REMARK    6  A    between atoms: O_19  and  C_20
REMARK    7  A    between atoms: C_22  and  C_23
REMARK    8  A    between atoms: C_23  and  O_24
REMARK    9  A    between atoms: O_24  and  C_25
REMARK   10  A    between atoms: C_27  and  C_28
REMARK   11  A    between atoms: C_29  and  O_30
REMARK   12  A    between atoms: C_31  and  O_32
REMARK   13  A    between atoms: C_33  and  O_34
REMARK   14  A    between atoms: C_35  and  O_36
REMARK   15  A    between atoms: C_37  and  O_38
REMARK   16  A    between atoms: C_39  and  O_40
REMARK   17  A    between atoms: C_42  and  O_43
REMARK                            x       y       z     vdW  Elec       q    Type
REMARK                         _______ _______ _______ _____ _____    ______ ____
ROOT
ATOM      1  C   UNL     1       6.356   6.647  -4.533  0.00  0.00    +0.000 C 
ATOM      2  O   UNL     1       5.348   7.234  -5.326  0.00  0.00    +0.000 OA
ATOM      3  C   UNL     1       4.904   8.479  -4.828  0.00  0.00    +0.000 C 
ATOM      4  C   UNL     1       5.961   9.539  -4.701  0.00  0.00    +0.000 C 
ATOM      5  C   UNL     1       7.052   9.002  -3.794  0.00  0.00    +0.000 C 
ATOM      6  C   UNL     1       7.533   7.619  -4.260  0.00  0.00    +0.000 C 
ENDROOT
BRANCH   4   7
ATOM      7  O   UNL     1       5.392  10.750  -4.189  0.00  0.00    +0.000 OA
ATOM      8  H   UNL     1       5.044  10.603  -3.294  0.00  0.00    +0.000 HD
ENDBRANCH   4   7
BRANCH   5   9
ATOM      9  O   UNL     1       8.141   9.929  -3.809  0.00  0.00    +0.000 OA
ATOM     10  H   UNL     1       8.447  10.003  -4.733  0.00  0.00    +0.000 HD
ENDBRANCH   5   9
BRANCH   6  11
ATOM     11  O   UNL     1       8.455   7.057  -3.325  0.00  0.00    +0.000 OA
ATOM     12  H   UNL     1       8.009   6.958  -2.469  0.00  0.00    +0.000 HD
ENDBRANCH   6  11
BRANCH   1  13
ATOM     13  O   UNL     1       6.770   5.407  -5.127  0.00  0.00    +0.000 OA
BRANCH  13  22
ATOM     14  C   UNL     1       8.735   7.334 -10.584  0.00  0.00    +0.000 C 
ATOM     15  C   UNL     1       9.279   5.694 -10.879  0.00  0.00    +0.000 C 
ATOM     16  C   UNL     1       9.982   5.618  -9.578  0.00  0.00    +0.000 C 
ATOM     17  O   UNL     1      11.037   6.179  -9.390  0.00  0.00    +0.000 OA
ATOM     18  C   UNL     1       9.019   5.377  -8.527  0.00  0.00    +0.000 A 
ATOM     19  C   UNL     1       8.263   6.494  -8.326  0.00  0.00    +0.000 A 
ATOM     20  O   UNL     1       8.350   7.536  -9.182  0.00  0.00    +0.000 OA
ATOM     21  C   UNL     1       7.462   6.561  -7.200  0.00  0.00    +0.000 A 
ATOM     22  C   UNL     1       7.367   5.442  -6.362  0.00  0.00    +0.000 A 
ATOM     23  C   UNL     1       7.933   4.226  -6.776  0.00  0.00    +0.000 A 
ATOM     24  C   UNL     1       8.742   4.192  -7.905  0.00  0.00    +0.000 A 
BRANCH  14  28
ATOM     25  C   UNL     1       8.119  11.766 -11.469  0.00  0.00    +0.000 A 
ATOM     26  C   UNL     1       7.612  10.710 -12.249  0.00  0.00    +0.000 A 
ATOM     27  C   UNL     1       7.822   9.332 -11.971  0.00  0.00    +0.000 A 
ATOM     28  C   UNL     1       8.581   8.917 -10.892  0.00  0.00    +0.000 A 
ATOM     29  C   UNL     1       9.077  10.024 -10.038  0.00  0.00    +0.000 A 
ATOM     30  C   UNL     1       8.843  11.420 -10.333  0.00  0.00    +0.000 A 
BRANCH  25  32
ATOM     31  C   UNL     1       8.271  14.196 -11.306  0.00  0.00    +0.000 C 
ATOM     32  O   UNL     1       7.803  13.013 -11.957  0.00  0.00    +0.000 OA
ENDBRANCH  25  32
BRANCH  30  33
ATOM     33  O   UNL     1       9.289  12.450  -9.538  0.00  0.00    +0.000 OA
ATOM     34  H   UNL     1       9.774  12.166  -8.751  0.00  0.00    +0.000 HD
ENDBRANCH  30  33
ENDBRANCH  14  28
BRANCH  24  35
ATOM     35  O   UNL     1       9.232   3.041  -8.435  0.00  0.00    +0.000 OA
ATOM     36  H   UNL     1       8.952   2.293  -7.885  0.00  0.00    +0.000 HD
ENDBRANCH  24  35
ENDBRANCH  13  22
ENDBRANCH   1  13
BRANCH   3  37
ATOM     37  C   UNL     1       3.893   8.960  -5.801  0.00  0.00    +0.000 C 
BRANCH  37  38
ATOM     38  O   UNL     1       4.271   9.394  -7.089  0.00  0.00    +0.000 OA
BRANCH  38  39
ATOM     39  C   UNL     1       3.108   9.746  -7.871  0.00  0.00    +0.000 C 
ATOM     40  O   UNL     1       1.947  10.163  -7.108  0.00  0.00    +0.000 OA
ATOM     41  C   UNL     1       1.250   9.146  -6.378  0.00  0.00    +0.000 C 
ATOM     42  C   UNL     1       0.194   9.780  -5.498  0.00  0.00    +0.000 C 
ATOM     43  C   UNL     1       0.899   7.927  -7.228  0.00  0.00    +0.000 C 
ATOM     44  C   UNL     1       2.089   7.459  -8.116  0.00  0.00    +0.000 C 
ATOM     45  C   UNL     1       2.729   8.630  -8.869  0.00  0.00    +0.000 C 
BRANCH  43  46
ATOM     46  O   UNL     1       0.475   6.863  -6.367  0.00  0.00    +0.000 OA
ATOM     47  H   UNL     1       1.262   6.475  -5.942  0.00  0.00    +0.000 HD
ENDBRANCH  43  46
BRANCH  44  48
ATOM     48  O   UNL     1       1.628   6.464  -9.039  0.00  0.00    +0.000 OA
ATOM     49  H   UNL     1       1.002   6.914  -9.636  0.00  0.00    +0.000 HD
ENDBRANCH  44  48
BRANCH  45  50
ATOM     50  O   UNL     1       1.787   9.095  -9.857  0.00  0.00    +0.000 OA
ATOM     51  H   UNL     1       1.069   9.561  -9.392  0.00  0.00    +0.000 HD
ENDBRANCH  45  50
ENDBRANCH  38  39
ENDBRANCH  37  38
ENDBRANCH   3  37
TORSDOF 15
