REMARK  Name = Hetacillin
REMARK  8 active torsions:
REMARK  status: ('A' for Active; 'I' for Inactive)
REMARK    1  A    between atoms: C_4  and  C_5
REMARK    2  A    between atoms: C_4  and  C_6
REMARK    3  A    between atoms: CA_7  and  C_26
REMARK    4  A    between atoms: CA_11  and  N_12
REMARK    5  A    between atoms: CA_15  and  C_20
REMARK    6  A    between atoms: C_17  and  C_18
REMARK    7  A    between atoms: C_17  and  C_19
REMARK    8  A    between atoms: C_26  and  O_27
REMARK                            x       y       z     vdW  Elec       q    Type
REMARK                         _______ _______ _______ _____ _____    ______ ____
ROOT
ATOM      1  N   UNL     1       3.446   1.615  -1.598  0.00  0.00    +0.000 N 
ATOM      2  C   UNL     1       3.341   2.895  -2.169  0.00  0.00    +0.000 C 
ATOM      3  O   UNL     1       3.208   3.963  -1.600  0.00  0.00    +0.000 OA
ATOM      4  CA  UNL     1       3.256   2.589  -3.652  0.00  0.00    +0.000 C 
ATOM      5  N   UNL     1       4.066   1.374  -3.815  0.00  0.00    +0.000 NA
ATOM      6  C   UNL     1       4.253   0.813  -2.478  0.00  0.00    +0.000 C 
ATOM      7  C   UNL     1       5.714   0.738  -2.036  0.00  0.00    +0.000 C 
ATOM      8  C   UNL     1       3.820  -0.597  -2.651  0.00  0.00    +0.000 C 
ATOM      9  H   UNL     1       4.967   1.603  -4.220  0.00  0.00    +0.000 HD
ENDROOT
BRANCH   1  19
ATOM     10  C   UNL     1       1.988   0.011   0.035  0.00  0.00    +0.000 C 
ATOM     11  S   UNL     1       1.782  -1.446  -0.995  0.00  0.00    +0.000 S 
ATOM     12  C   UNL     1       2.745  -2.598   0.100  0.00  0.00    +0.000 C 
ATOM     13  C   UNL     1       3.743  -3.549  -0.621  0.00  0.00    +0.000 C 
ATOM     14  C   UNL     1       1.472  -3.321   0.545  0.00  0.00    +0.000 C 
ATOM     15  CA  UNL     1       3.517  -1.722   1.120  0.00  0.00    +0.000 C 
ATOM     16  N   UNL     1       2.956  -0.360   1.073  0.00  0.00    +0.000 N 
ATOM     17  C   UNL     1       3.744   0.740   0.866  0.00  0.00    +0.000 C 
ATOM     18  O   UNL     1       4.827   1.046   1.340  0.00  0.00    +0.000 OA
ATOM     19  CA  UNL     1       2.845   1.276  -0.263  0.00  0.00    +0.000 C 
BRANCH  15  20
ATOM     20  C   UNL     1       3.626  -2.252   2.568  0.00  0.00    +0.000 C 
ATOM     21  OXT UNL     1       4.103  -1.595   3.484  0.00  0.00    +0.000 OA
BRANCH  20  22
ATOM     22  O   UNL     1       3.225  -3.513   2.829  0.00  0.00    +0.000 OA
ATOM     23  H   UNL     1       3.085  -4.142   2.105  0.00  0.00    +0.000 HD
ENDBRANCH  20  22
ENDBRANCH  15  20
ENDBRANCH   1  19
BRANCH   4  24
ATOM     24  C   UNL     1       3.635   3.653  -4.634  0.00  0.00    +0.000 A 
ATOM     25  C   UNL     1       4.919   4.208  -4.627  0.00  0.00    +0.000 A 
ATOM     26  C   UNL     1       5.253   5.207  -5.535  0.00  0.00    +0.000 A 
ATOM     27  C   UNL     1       4.340   5.597  -6.513  0.00  0.00    +0.000 A 
ATOM     28  C   UNL     1       3.066   5.035  -6.547  0.00  0.00    +0.000 A 
ATOM     29  C   UNL     1       2.711   4.072  -5.607  0.00  0.00    +0.000 A 
ENDBRANCH   4  24
TORSDOF 4
