REMARK  Name = Hexamidine
REMARK  11 active torsions:
REMARK  status: ('A' for Active; 'I' for Inactive)
REMARK    1  A    between atoms: C_2  and  C_4
REMARK    2  A    between atoms: C_7  and  O_8
REMARK    3  A    between atoms: O_8  and  C_9
REMARK    4  A    between atoms: C_9  and  C_10
REMARK    5  A    between atoms: C_10  and  C_11
REMARK    6  A    between atoms: C_11  and  C_12
REMARK    7  A    between atoms: C_12  and  C_13
REMARK    8  A    between atoms: C_13  and  C_14
REMARK    9  A    between atoms: C_14  and  O_15
REMARK   10  A    between atoms: O_15  and  C_16
REMARK   11  A    between atoms: C_19  and  C_22
REMARK                            x       y       z     vdW  Elec       q    Type
REMARK                         _______ _______ _______ _____ _____    ______ ____
ROOT
ATOM      1  C   UNL     1       5.791  -8.013   1.773  0.00  0.00    +0.000 C 
ENDROOT
BRANCH   1   2
ATOM      2  C   UNL     1       6.212  -6.567   2.038  0.00  0.00    +0.000 C 
BRANCH   2   3
ATOM      3  C   UNL     1       5.223  -5.591   1.409  0.00  0.00    +0.000 C 
BRANCH   3   4
ATOM      4  O   UNL     1       5.669  -4.250   1.628  0.00  0.00    +0.000 OA
BRANCH   4   8
ATOM      5  C   UNL     1       3.204  -1.074   0.495  0.00  0.00    +0.000 A 
ATOM      6  C   UNL     1       4.386  -0.867   1.212  0.00  0.00    +0.000 A 
ATOM      7  C   UNL     1       5.203  -1.955   1.541  0.00  0.00    +0.000 A 
ATOM      8  C   UNL     1       4.816  -3.258   1.214  0.00  0.00    +0.000 A 
ATOM      9  C   UNL     1       3.624  -3.457   0.510  0.00  0.00    +0.000 A 
ATOM     10  C   UNL     1       2.817  -2.370   0.155  0.00  0.00    +0.000 A 
BRANCH   5  12
ATOM     11  N   UNL     1       1.085   0.036  -0.160  0.00  0.00    +0.000 N 
ATOM     12  C   UNL     1       2.444   0.094  -0.034  0.00  0.00    +0.000 C 
ATOM     13  N   UNL     1       3.103   1.133  -0.411  0.00  0.00    +0.000 NA
ATOM     14  H   UNL     1       0.573   0.882  -0.371  0.00  0.00    +0.000 HD
ATOM     15  H   UNL     1       0.566  -0.662   0.358  0.00  0.00    +0.000 HD
ATOM     16  H   UNL     1       2.474   1.829  -0.814  0.00  0.00    +0.000 HD
ENDBRANCH   5  12
ENDBRANCH   4   8
ENDBRANCH   3   4
ENDBRANCH   2   3
ENDBRANCH   1   2
BRANCH   1  17
ATOM     17  C   UNL     1       6.784  -8.997   2.385  0.00  0.00    +0.000 C 
BRANCH  17  18
ATOM     18  C   UNL     1       6.379 -10.442   2.109  0.00  0.00    +0.000 C 
BRANCH  18  19
ATOM     19  C   UNL     1       7.382 -11.417   2.723  0.00  0.00    +0.000 C 
BRANCH  19  20
ATOM     20  O   UNL     1       6.989 -12.737   2.353  0.00  0.00    +0.000 OA
BRANCH  20  21
ATOM     21  C   UNL     1       7.702 -13.761   2.910  0.00  0.00    +0.000 A 
ATOM     22  C   UNL     1       7.837 -14.892   2.110  0.00  0.00    +0.000 A 
ATOM     23  C   UNL     1       8.422 -16.056   2.616  0.00  0.00    +0.000 A 
ATOM     24  C   UNL     1       8.949 -16.088   3.913  0.00  0.00    +0.000 A 
ATOM     25  C   UNL     1       8.806 -14.946   4.715  0.00  0.00    +0.000 A 
ATOM     26  C   UNL     1       8.182 -13.791   4.216  0.00  0.00    +0.000 A 
BRANCH  24  27
ATOM     27  C   UNL     1       9.675 -17.313   4.396  0.00  0.00    +0.000 C 
ATOM     28  N   UNL     1       9.793 -18.422   3.619  0.00  0.00    +0.000 N 
ATOM     29  N   UNL     1      10.247 -17.403   5.557  0.00  0.00    +0.000 NA
ATOM     30  H   UNL     1       9.541 -18.468   2.646  0.00  0.00    +0.000 HD
ATOM     31  H   UNL     1      10.408 -19.146   3.972  0.00  0.00    +0.000 HD
ATOM     32  H   UNL     1      10.144 -16.559   6.117  0.00  0.00    +0.000 HD
ENDBRANCH  24  27
ENDBRANCH  20  21
ENDBRANCH  19  20
ENDBRANCH  18  19
ENDBRANCH  17  18
ENDBRANCH   1  17
TORSDOF 11
