REMARK  Name = Hexafluronium
REMARK  13 active torsions:
REMARK  status: ('A' for Active; 'I' for Inactive)
REMARK    1  A    between atoms: C_1  and  N_2
REMARK    2  A    between atoms: N_2  and  C_3
REMARK    3  A    between atoms: N_2  and  C_4
REMARK    4  A    between atoms: N_2  and  C_26
REMARK    5  A    between atoms: C_4  and  C_5
REMARK    6  A    between atoms: C_5  and  C_6
REMARK    7  A    between atoms: C_6  and  C_7
REMARK    8  A    between atoms: C_7  and  C_8
REMARK    9  A    between atoms: C_8  and  C_9
REMARK   10  A    between atoms: C_9  and  N_10
REMARK   11  A    between atoms: N_10  and  C_11
REMARK   12  A    between atoms: N_10  and  C_12
REMARK   13  A    between atoms: N_10  and  C_13
REMARK                            x       y       z     vdW  Elec       q    Type
REMARK                         _______ _______ _______ _____ _____    ______ ____
ROOT
ATOM      1  C   UNL     1       2.992   3.500   1.212  0.00  0.00    +0.000 C 
ENDROOT
BRANCH   1   2
ATOM      2  C   UNL     1       2.468   2.384   0.367  0.00  0.00    +0.000 C 
BRANCH   2   3
ATOM      3  C   UNL     1       2.932   1.044   0.894  0.00  0.00    +0.000 C 
BRANCH   3   5
ATOM      4  C   UNL     1       0.899  -0.163   0.004  0.00  0.00    +0.000 C 
ATOM      5  N   UNL     1       2.423  -0.079   0.004  0.00  0.00    +0.000 N 
ATOM      6  C   UNL     1       2.841   0.214  -1.437  0.00  0.00    +0.000 C 
BRANCH   5   7
ATOM      7  C   UNL     1       3.079  -1.415   0.541  0.00  0.00    +0.000 C 
ATOM      8  C   UNL     1       2.217  -2.269   1.483  0.00  0.00    +0.000 A 
ATOM      9  C   UNL     1       2.153  -3.590   0.978  0.00  0.00    +0.000 A 
ATOM     10  C   UNL     1       1.473  -4.579   1.675  0.00  0.00    +0.000 A 
ATOM     11  C   UNL     1       0.844  -4.245   2.876  0.00  0.00    +0.000 A 
ATOM     12  C   UNL     1       0.899  -2.936   3.376  0.00  0.00    +0.000 A 
ATOM     13  C   UNL     1       1.602  -1.940   2.688  0.00  0.00    +0.000 A 
ATOM     14  C   UNL     1       2.896  -3.669  -0.259  0.00  0.00    +0.000 A 
ATOM     15  C   UNL     1       3.483  -2.423  -0.535  0.00  0.00    +0.000 A 
ATOM     16  C   UNL     1       4.306  -2.253  -1.647  0.00  0.00    +0.000 A 
ATOM     17  C   UNL     1       4.418  -3.283  -2.572  0.00  0.00    +0.000 A 
ATOM     18  C   UNL     1       3.834  -4.520  -2.302  0.00  0.00    +0.000 A 
ATOM     19  C   UNL     1       3.095  -4.731  -1.133  0.00  0.00    +0.000 A 
ENDBRANCH   5   7
ENDBRANCH   3   5
ENDBRANCH   2   3
ENDBRANCH   1   2
BRANCH   1  20
ATOM     20  C   UNL     1       2.484   4.787   0.597  0.00  0.00    +0.000 C 
BRANCH  20  21
ATOM     21  C   UNL     1       3.018   5.898   1.450  0.00  0.00    +0.000 C 
BRANCH  21  22
ATOM     22  C   UNL     1       2.585   7.229   0.902  0.00  0.00    +0.000 C 
BRANCH  22  23
ATOM     23  N   UNL     1       3.058   8.370   1.791  0.00  0.00    +0.000 N 
ATOM     24  C   UNL     1       2.669   8.184   3.274  0.00  0.00    +0.000 C 
ATOM     25  C   UNL     1       4.577   8.430   1.750  0.00  0.00    +0.000 C 
BRANCH  23  26
ATOM     26  C   UNL     1       2.395   9.671   1.201  0.00  0.00    +0.000 C 
ATOM     27  C   UNL     1       1.018   9.928   1.830  0.00  0.00    +0.000 A 
ATOM     28  C   UNL     1       1.044  11.166   2.501  0.00  0.00    +0.000 A 
ATOM     29  C   UNL     1      -0.014  11.525   3.324  0.00  0.00    +0.000 A 
ATOM     30  C   UNL     1      -1.061  10.616   3.514  0.00  0.00    +0.000 A 
ATOM     31  C   UNL     1      -1.079   9.384   2.856  0.00  0.00    +0.000 A 
ATOM     32  C   UNL     1      -0.063   9.056   1.965  0.00  0.00    +0.000 A 
ATOM     33  C   UNL     1       2.300  11.832   2.236  0.00  0.00    +0.000 A 
ATOM     34  C   UNL     1       3.123  10.986   1.461  0.00  0.00    +0.000 A 
ATOM     35  C   UNL     1       4.356  11.425   0.984  0.00  0.00    +0.000 A 
ATOM     36  C   UNL     1       4.791  12.704   1.333  0.00  0.00    +0.000 A 
ATOM     37  C   UNL     1       3.987  13.532   2.127  0.00  0.00    +0.000 A 
ATOM     38  C   UNL     1       2.738  13.101   2.585  0.00  0.00    +0.000 A 
ENDBRANCH  23  26
ENDBRANCH  22  23
ENDBRANCH  21  22
ENDBRANCH  20  21
ENDBRANCH   1  20
TORSDOF 9
