REMARK  Name = Hexaminolevulinate
REMARK  12 active torsions:
REMARK  status: ('A' for Active; 'I' for Inactive)
REMARK    1  A    between atoms: N_2  and  C_4
REMARK    2  A    between atoms: C_4  and  C_5
REMARK    3  A    between atoms: C_5  and  C_7
REMARK    4  A    between atoms: C_7  and  C_8
REMARK    5  A    between atoms: C_8  and  C_9
REMARK    6  A    between atoms: C_9  and  O_11
REMARK    7  A    between atoms: O_11  and  C_12
REMARK    8  A    between atoms: C_12  and  C_13
REMARK    9  A    between atoms: C_13  and  C_14
REMARK   10  A    between atoms: C_14  and  C_15
REMARK   11  A    between atoms: C_15  and  C_16
REMARK   12  A    between atoms: C_16  and  C_17
REMARK                            x       y       z     vdW  Elec       q    Type
REMARK                         _______ _______ _______ _____ _____    ______ ____
ROOT
ATOM      1  C   UNL     1       7.005  -3.409   1.530  0.00  0.00    +0.000 C 
ATOM      2  O   UNL     1       6.424  -4.389   1.985  0.00  0.00    +0.000 OA
ENDROOT
BRANCH   1   3
ATOM      3  C   UNL     1       6.299  -2.196   0.970  0.00  0.00    +0.000 C 
BRANCH   3   4
ATOM      4  C   UNL     1       4.774  -2.360   1.043  0.00  0.00    +0.000 C 
BRANCH   4   5
ATOM      5  C   UNL     1       4.049  -1.143   0.492  0.00  0.00    +0.000 C 
ATOM      6  O   UNL     1       4.677  -0.158   0.096  0.00  0.00    +0.000 OA
BRANCH   5   7
ATOM      7  C   UNL     1       2.512  -1.193   0.505  0.00  0.00    +0.000 C 
BRANCH   7   9
ATOM      8  H   UNL     1       0.944   0.056   0.006  0.00  0.00    +0.000 HD
ATOM      9  N   UNL     1       1.956   0.031  -0.082  0.00  0.00    +0.000 NA
ATOM     10  H   UNL     1       2.330   0.839   0.420  0.00  0.00    +0.000 HD
ENDBRANCH   7   9
ENDBRANCH   5   7
ENDBRANCH   4   5
ENDBRANCH   3   4
ENDBRANCH   1   3
BRANCH   1  11
ATOM     11  O   UNL     1       8.364  -3.275   1.469  0.00  0.00    +0.000 OA
BRANCH  11  12
ATOM     12  C   UNL     1       9.082  -4.410   1.993  0.00  0.00    +0.000 C 
BRANCH  12  13
ATOM     13  C   UNL     1      10.589  -4.179   1.886  0.00  0.00    +0.000 C 
BRANCH  13  14
ATOM     14  C   UNL     1      11.376  -5.372   2.436  0.00  0.00    +0.000 C 
BRANCH  14  15
ATOM     15  C   UNL     1      12.882  -5.141   2.329  0.00  0.00    +0.000 C 
BRANCH  15  16
ATOM     16  C   UNL     1      13.665  -6.332   2.878  0.00  0.00    +0.000 C 
ATOM     17  C   UNL     1      15.160  -6.091   2.767  0.00  0.00    +0.000 C 
ENDBRANCH  15  16
ENDBRANCH  14  15
ENDBRANCH  13  14
ENDBRANCH  12  13
ENDBRANCH  11  12
ENDBRANCH   1  11
TORSDOF 11
