REMARK  Name = Hexachlorophene
REMARK  4 active torsions:
REMARK  status: ('A' for Active; 'I' for Inactive)
REMARK    1  A    between atoms: O_1  and  C_2
REMARK    2  A    between atoms: C_3  and  C_4
REMARK    3  A    between atoms: C_4  and  C_5
REMARK    4  A    between atoms: C_6  and  O_7
REMARK                            x       y       z     vdW  Elec       q    Type
REMARK                         _______ _______ _______ _____ _____    ______ ____
ROOT
ATOM      1  C   UNL     1      -0.307   3.075   0.139  0.00  0.00    +0.000 C 
ENDROOT
BRANCH   1   3
ATOM      2  C   UNL     1       1.291   1.113   0.025  0.00  0.00    +0.000 A 
ATOM      3  C   UNL     1      -0.051   1.570  -0.030  0.00  0.00    +0.000 A 
ATOM      4  C   UNL     1      -1.052   0.564  -0.190  0.00  0.00    +0.000 A 
ATOM      5 CL   UNL     1      -2.677   0.899  -0.714  0.00  0.00    +0.000 Cl
ATOM      6  C   UNL     1      -0.732  -0.802  -0.070  0.00  0.00    +0.000 A 
ATOM      7 CL   UNL     1      -1.939  -2.049  -0.022  0.00  0.00    +0.000 Cl
ATOM      8  C   UNL     1       0.588  -1.212   0.017  0.00  0.00    +0.000 A 
ATOM      9  C   UNL     1       1.598  -0.260   0.017  0.00  0.00    +0.000 A 
ATOM     10 CL   UNL     1       3.229  -0.830   0.010  0.00  0.00    +0.000 Cl
BRANCH   2  11
ATOM     11  O   UNL     1       2.368   1.968   0.071  0.00  0.00    +0.000 OA
ATOM     12  H   UNL     1       2.132   2.902   0.025  0.00  0.00    +0.000 HD
ENDBRANCH   2  11
ENDBRANCH   1   3
BRANCH   1  13
ATOM     13  C   UNL     1      -1.738   3.569   0.266  0.00  0.00    +0.000 A 
ATOM     14  C   UNL     1      -2.374   4.271  -0.781  0.00  0.00    +0.000 A 
ATOM     15  C   UNL     1      -3.767   4.451  -0.777  0.00  0.00    +0.000 A 
ATOM     16 CL   UNL     1      -4.575   5.257  -2.075  0.00  0.00    +0.000 Cl
ATOM     17  C   UNL     1      -4.547   3.927   0.250  0.00  0.00    +0.000 A 
ATOM     18  C   UNL     1      -3.935   3.290   1.328  0.00  0.00    +0.000 A 
ATOM     19 CL   UNL     1      -4.977   2.555   2.499  0.00  0.00    +0.000 Cl
ATOM     20  C   UNL     1      -2.535   3.159   1.375  0.00  0.00    +0.000 A 
ATOM     21 CL   UNL     1      -1.795   2.340   2.724  0.00  0.00    +0.000 Cl
BRANCH  14  22
ATOM     22  O   UNL     1      -1.705   4.749  -1.881  0.00  0.00    +0.000 OA
ATOM     23  H   UNL     1      -0.747   4.697  -1.811  0.00  0.00    +0.000 HD
ENDBRANCH  14  22
ENDBRANCH   1  13
TORSDOF 4
