REMARK  Name = Hexetidine
REMARK  18 active torsions:
REMARK  status: ('A' for Active; 'I' for Inactive)
REMARK    1  A    between atoms: C_1  and  C_2
REMARK    2  A    between atoms: C_2  and  C_3
REMARK    3  A    between atoms: C_3  and  C_4
REMARK    4  A    between atoms: C_4  and  C_5
REMARK    5  A    between atoms: C_5  and  C_6
REMARK    6  A    between atoms: C_5  and  C_8
REMARK    7  A    between atoms: C_6  and  C_7
REMARK    8  A    between atoms: C_8  and  N_9
REMARK    9  A    between atoms: N_11  and  C_12
REMARK   10  A    between atoms: C_12  and  C_13
REMARK   11  A    between atoms: C_13  and  C_14
REMARK   12  A    between atoms: C_13  and  C_16
REMARK   13  A    between atoms: C_14  and  C_15
REMARK   14  A    between atoms: C_16  and  C_17
REMARK   15  A    between atoms: C_17  and  C_18
REMARK   16  A    between atoms: C_18  and  C_19
REMARK   17  A    between atoms: C_21  and  C_22
REMARK   18  A    between atoms: C_21  and  N_23
REMARK                            x       y       z     vdW  Elec       q    Type
REMARK                         _______ _______ _______ _____ _____    ______ ____
ROOT
ATOM      1  N   UNL     1       7.036   3.303  -2.637  0.00  0.00    +0.000 NA
ATOM      2  C   UNL     1       6.240   4.074  -3.614  0.00  0.00    +0.000 C 
ATOM      3  N   UNL     1       5.359   4.962  -2.900  0.00  0.00    +0.000 NA
ATOM      4  C   UNL     1       6.052   5.682  -1.863  0.00  0.00    +0.000 C 
ATOM      5  C   UNL     1       6.995   5.025  -0.809  0.00  0.00    +0.000 C 
ATOM      6  C   UNL     1       6.371   4.241   0.378  0.00  0.00    +0.000 C 
ATOM      7  C   UNL     1       7.852   4.150  -1.721  0.00  0.00    +0.000 C 
ENDROOT
BRANCH   5   8
ATOM      8  N   UNL     1       7.722   6.057  -0.027  0.00  0.00    +0.000 NA
ATOM      9  H   UNL     1       7.083   6.431   0.684  0.00  0.00    +0.000 HD
ATOM     10  H   UNL     1       7.969   6.854  -0.608  0.00  0.00    +0.000 HD
ENDBRANCH   5   8
BRANCH   1  11
ATOM     11  C   UNL     1       6.328   2.203  -1.944  0.00  0.00    +0.000 C 
BRANCH  11  12
ATOM     12  C   UNL     1       4.739   2.129  -1.752  0.00  0.00    +0.000 C 
BRANCH  12  13
ATOM     13  C   UNL     1       3.966   3.253  -0.973  0.00  0.00    +0.000 C 
ATOM     14  C   UNL     1       2.513   3.633  -1.230  0.00  0.00    +0.000 C 
ENDBRANCH  12  13
BRANCH  12  15
ATOM     15  C   UNL     1       4.440   0.846  -0.933  0.00  0.00    +0.000 C 
BRANCH  15  16
ATOM     16  C   UNL     1       2.938   0.708  -0.834  0.00  0.00    +0.000 C 
BRANCH  16  18
ATOM     17  C   UNL     1       0.861  -0.200   0.027  0.00  0.00    +0.000 C 
ATOM     18  C   UNL     1       2.377  -0.381   0.027  0.00  0.00    +0.000 C 
ENDBRANCH  16  18
ENDBRANCH  15  16
ENDBRANCH  12  15
ENDBRANCH  11  12
ENDBRANCH   1  11
BRANCH   3  19
ATOM     19  C   UNL     1       4.310   5.774  -3.547  0.00  0.00    +0.000 C 
BRANCH  19  20
ATOM     20  C   UNL     1       3.312   6.617  -2.577  0.00  0.00    +0.000 C 
BRANCH  20  21
ATOM     21  C   UNL     1       3.851   7.714  -1.553  0.00  0.00    +0.000 C 
ATOM     22  C   UNL     1       4.558   7.426  -0.217  0.00  0.00    +0.000 C 
ENDBRANCH  20  21
BRANCH  20  23
ATOM     23  C   UNL     1       2.200   7.266  -3.456  0.00  0.00    +0.000 C 
BRANCH  23  24
ATOM     24  C   UNL     1       1.100   7.939  -2.620  0.00  0.00    +0.000 C 
BRANCH  24  25
ATOM     25  C   UNL     1       0.097   8.691  -3.471  0.00  0.00    +0.000 C 
ATOM     26  C   UNL     1      -0.872   9.437  -2.566  0.00  0.00    +0.000 C 
ENDBRANCH  24  25
ENDBRANCH  23  24
ENDBRANCH  20  23
ENDBRANCH  19  20
ENDBRANCH   3  19
TORSDOF 13
