REMARK  Name = Hexobendine
REMARK  29 active torsions:
REMARK  status: ('A' for Active; 'I' for Inactive)
REMARK    1  A    between atoms: C_1  and  O_2
REMARK    2  A    between atoms: O_2  and  C_3
REMARK    3  A    between atoms: C_5  and  C_13
REMARK    4  A    between atoms: C_7  and  O_8
REMARK    5  A    between atoms: O_8  and  C_9
REMARK    6  A    between atoms: C_10  and  O_11
REMARK    7  A    between atoms: O_11  and  C_12
REMARK    8  A    between atoms: C_13  and  O_15
REMARK    9  A    between atoms: O_15  and  C_16
REMARK   10  A    between atoms: C_16  and  C_17
REMARK   11  A    between atoms: C_17  and  C_18
REMARK   12  A    between atoms: C_18  and  N_19
REMARK   13  A    between atoms: N_19  and  C_20
REMARK   14  A    between atoms: N_19  and  C_21
REMARK   15  A    between atoms: C_21  and  C_22
REMARK   16  A    between atoms: C_22  and  N_23
REMARK   17  A    between atoms: N_23  and  C_24
REMARK   18  A    between atoms: N_23  and  C_25
REMARK   19  A    between atoms: C_25  and  C_26
REMARK   20  A    between atoms: C_26  and  C_27
REMARK   21  A    between atoms: C_27  and  O_28
REMARK   22  A    between atoms: O_28  and  C_29
REMARK   23  A    between atoms: C_29  and  C_31
REMARK   24  A    between atoms: C_33  and  O_34
REMARK   25  A    between atoms: O_34  and  C_35
REMARK   26  A    between atoms: C_36  and  O_37
REMARK   27  A    between atoms: O_37  and  C_38
REMARK   28  A    between atoms: C_39  and  O_40
REMARK   29  A    between atoms: O_40  and  C_41
REMARK                            x       y       z     vdW  Elec       q    Type
REMARK                         _______ _______ _______ _____ _____    ______ ____
ROOT
ATOM      1  C   UNL     1      12.967   4.383   4.319  0.00  0.00    +0.000 C 
ENDROOT
BRANCH   1   2
ATOM      2  N   UNL     1      11.565   4.007   4.588  0.00  0.00    +0.000 NA
ATOM      3  C   UNL     1      11.520   2.877   5.518  0.00  0.00    +0.000 C 
BRANCH   2   4
ATOM      4  C   UNL     1      10.898   3.682   3.309  0.00  0.00    +0.000 C 
BRANCH   4   5
ATOM      5  C   UNL     1       9.414   3.348   3.506  0.00  0.00    +0.000 C 
BRANCH   5   6
ATOM      6  C   UNL     1       8.723   2.993   2.195  0.00  0.00    +0.000 C 
BRANCH   6   7
ATOM      7  O   UNL     1       7.335   2.675   2.455  0.00  0.00    +0.000 OA
BRANCH   7   8
ATOM      8  C   UNL     1       6.609   2.343   1.350  0.00  0.00    +0.000 C 
ATOM      9  O   UNL     1       7.064   2.303   0.210  0.00  0.00    +0.000 OA
BRANCH   8  12
ATOM     10  C   UNL     1       3.100   0.851   0.887  0.00  0.00    +0.000 A 
ATOM     11  C   UNL     1       4.358   1.461   0.633  0.00  0.00    +0.000 A 
ATOM     12  C   UNL     1       5.191   1.953   1.668  0.00  0.00    +0.000 A 
ATOM     13  C   UNL     1       4.709   1.942   2.978  0.00  0.00    +0.000 A 
ATOM     14  C   UNL     1       3.462   1.364   3.262  0.00  0.00    +0.000 A 
ATOM     15  C   UNL     1       2.655   0.814   2.221  0.00  0.00    +0.000 A 
BRANCH  10  17
ATOM     16  C   UNL     1       1.285   0.199  -0.664  0.00  0.00    +0.000 C 
ATOM     17  O   UNL     1       2.625   0.115  -0.182  0.00  0.00    +0.000 OA
ENDBRANCH  10  17
BRANCH  15  18
ATOM     18  O   UNL     1       1.535   0.249   2.730  0.00  0.00    +0.000 OA
ATOM     19  C   UNL     1       0.533  -0.301   1.957  0.00  0.00    +0.000 C 
ENDBRANCH  15  18
BRANCH  14  20
ATOM     20  O   UNL     1       3.163   1.331   4.619  0.00  0.00    +0.000 OA
ATOM     21  C   UNL     1       1.968   0.658   5.037  0.00  0.00    +0.000 C 
ENDBRANCH  14  20
ENDBRANCH   8  12
ENDBRANCH   7   8
ENDBRANCH   6   7
ENDBRANCH   5   6
ENDBRANCH   4   5
ENDBRANCH   2   4
ENDBRANCH   1   2
BRANCH   1  22
ATOM     22  C   UNL     1      13.738   4.825   5.586  0.00  0.00    +0.000 C 
BRANCH  22  23
ATOM     23  N   UNL     1      15.140   5.203   5.317  0.00  0.00    +0.000 NA
ATOM     24  C   UNL     1      15.183   6.332   4.388  0.00  0.00    +0.000 C 
BRANCH  23  25
ATOM     25  C   UNL     1      15.806   5.527   6.596  0.00  0.00    +0.000 C 
BRANCH  25  26
ATOM     26  C   UNL     1      17.288   5.862   6.396  0.00  0.00    +0.000 C 
BRANCH  26  27
ATOM     27  C   UNL     1      17.984   6.223   7.701  0.00  0.00    +0.000 C 
BRANCH  27  28
ATOM     28  O   UNL     1      19.362   6.566   7.425  0.00  0.00    +0.000 OA
BRANCH  28  29
ATOM     29  C   UNL     1      20.098   6.860   8.529  0.00  0.00    +0.000 C 
ATOM     30  O   UNL     1      19.673   6.862   9.685  0.00  0.00    +0.000 OA
BRANCH  29  31
ATOM     31  C   UNL     1      21.502   7.224   8.197  0.00  0.00    +0.000 A 
ATOM     32  C   UNL     1      22.558   6.865   9.047  0.00  0.00    +0.000 A 
ATOM     33  C   UNL     1      23.854   7.389   8.849  0.00  0.00    +0.000 A 
ATOM     34  C   UNL     1      24.119   8.190   7.717  0.00  0.00    +0.000 A 
ATOM     35  C   UNL     1      23.047   8.569   6.886  0.00  0.00    +0.000 A 
ATOM     36  C   UNL     1      21.754   8.081   7.125  0.00  0.00    +0.000 A 
BRANCH  35  37
ATOM     37  O   UNL     1      23.329   9.459   5.889  0.00  0.00    +0.000 OA
ATOM     38  C   UNL     1      22.278   9.918   5.066  0.00  0.00    +0.000 C 
ENDBRANCH  35  37
BRANCH  34  39
ATOM     39  O   UNL     1      25.431   8.526   7.506  0.00  0.00    +0.000 OA
ATOM     40  C   UNL     1      25.833   9.280   6.377  0.00  0.00    +0.000 C 
ENDBRANCH  34  39
BRANCH  33  41
ATOM     41  O   UNL     1      24.752   7.075   9.852  0.00  0.00    +0.000 OA
ATOM     42  C   UNL     1      26.010   7.758   9.849  0.00  0.00    +0.000 C 
ENDBRANCH  33  41
ENDBRANCH  29  31
ENDBRANCH  28  29
ENDBRANCH  27  28
ENDBRANCH  26  27
ENDBRANCH  25  26
ENDBRANCH  23  25
ENDBRANCH  22  23
ENDBRANCH   1  22
TORSDOF 21
