REMARK  Name = Hexocyclium
REMARK  7 active torsions:
REMARK  status: ('A' for Active; 'I' for Inactive)
REMARK    1  A    between atoms: C_1  and  N_2
REMARK    2  A    between atoms: N_2  and  C_3
REMARK    3  A    between atoms: N_6  and  C_7
REMARK    4  A    between atoms: C_7  and  C_8
REMARK    5  A    between atoms: C_8  and  O_9
REMARK    6  A    between atoms: C_8  and  C_10
REMARK    7  A    between atoms: C_8  and  C_16
REMARK                            x       y       z     vdW  Elec       q    Type
REMARK                         _______ _______ _______ _____ _____    ______ ____
ROOT
ATOM      1  C   UNL     1       4.213   1.260  -0.341  0.00  0.00    +0.000 C 
ENDROOT
BRANCH   1   2
ATOM      2  C   UNL     1       3.675   2.631   0.176  0.00  0.00    +0.000 C 
ATOM      3  C   UNL     1       3.597   2.667   1.721  0.00  0.00    +0.000 C 
ATOM      4  C   UNL     1       2.913   3.912   2.236  0.00  0.00    +0.000 C 
ATOM      5  C   UNL     1       3.515   5.140   1.573  0.00  0.00    +0.000 C 
ATOM      6  C   UNL     1       3.335   5.121   0.055  0.00  0.00    +0.000 C 
ATOM      7  C   UNL     1       4.010   3.922  -0.606  0.00  0.00    +0.000 C 
ENDBRANCH   1   2
BRANCH   1   8
ATOM      8  C   UNL     1       5.680   1.128   0.101  0.00  0.00    +0.000 A 
ATOM      9  C   UNL     1       6.301  -0.090   0.343  0.00  0.00    +0.000 A 
ATOM     10  C   UNL     1       7.552  -0.132   0.982  0.00  0.00    +0.000 A 
ATOM     11  C   UNL     1       8.243   1.045   1.289  0.00  0.00    +0.000 A 
ATOM     12  C   UNL     1       7.688   2.255   0.998  0.00  0.00    +0.000 A 
ATOM     13  C   UNL     1       6.426   2.283   0.430  0.00  0.00    +0.000 A 
ENDBRANCH   1   8
BRANCH   1  14
ATOM     14  O   UNL     1       4.139   1.241  -1.772  0.00  0.00    +0.000 OA
ATOM     15  H   UNL     1       3.202   1.102  -1.999  0.00  0.00    +0.000 HD
ENDBRANCH   1  14
BRANCH   1  16
ATOM     16  C   UNL     1       3.320   0.029   0.173  0.00  0.00    +0.000 C 
BRANCH  16  22
ATOM     17  C   UNL     1      -1.449  -0.058   1.467  0.00  0.00    +0.000 C 
ATOM     18  N   UNL     1      -1.073  -0.106  -0.003  0.00  0.00    +0.000 N 
ATOM     19  C   UNL     1      -2.311  -0.090  -0.872  0.00  0.00    +0.000 C 
ATOM     20  C   UNL     1      -0.206  -1.353  -0.341  0.00  0.00    +0.000 C 
ATOM     21  C   UNL     1       1.235  -1.258   0.227  0.00  0.00    +0.000 C 
ATOM     22  N   UNL     1       1.891  -0.023  -0.261  0.00  0.00    +0.000 NA
ATOM     23  C   UNL     1       1.072   1.096   0.205  0.00  0.00    +0.000 C 
ATOM     24  C   UNL     1      -0.323   1.134  -0.359  0.00  0.00    +0.000 C 
ENDBRANCH  16  22
ENDBRANCH   1  16
TORSDOF 5
