REMARK  Name = Hexylresorcinol
REMARK  8 active torsions:
REMARK  status: ('A' for Active; 'I' for Inactive)
REMARK    1  A    between atoms: C_1  and  C_2
REMARK    2  A    between atoms: C_2  and  C_3
REMARK    3  A    between atoms: C_3  and  C_4
REMARK    4  A    between atoms: C_4  and  C_5
REMARK    5  A    between atoms: C_5  and  C_6
REMARK    6  A    between atoms: C_6  and  C_7
REMARK    7  A    between atoms: C_8  and  O_9
REMARK    8  A    between atoms: C_11  and  O_12
REMARK                            x       y       z     vdW  Elec       q    Type
REMARK                         _______ _______ _______ _____ _____    ______ ____
ROOT
ATOM      1  C   UNL     1       7.118   1.570   3.955  0.00  0.00    +0.000 A 
ATOM      2  C   UNL     1       6.998   2.935   4.250  0.00  0.00    +0.000 A 
ATOM      3  C   UNL     1       7.363   3.438   5.496  0.00  0.00    +0.000 A 
ATOM      4  C   UNL     1       7.859   2.568   6.459  0.00  0.00    +0.000 A 
ATOM      5  C   UNL     1       7.998   1.213   6.193  0.00  0.00    +0.000 A 
ATOM      6  C   UNL     1       7.631   0.712   4.943  0.00  0.00    +0.000 A 
ENDROOT
BRANCH   2   7
ATOM      7  O   UNL     1       6.504   3.852   3.363  0.00  0.00    +0.000 OA
ATOM      8  H   UNL     1       6.286   3.412   2.527  0.00  0.00    +0.000 HD
ENDBRANCH   2   7
BRANCH   4   9
ATOM      9  O   UNL     1       8.219   3.015   7.697  0.00  0.00    +0.000 OA
ATOM     10  H   UNL     1       8.072   3.973   7.728  0.00  0.00    +0.000 HD
ENDBRANCH   4   9
BRANCH   1  11
ATOM     11  C   UNL     1       6.642   0.981   2.653  0.00  0.00    +0.000 C 
BRANCH  11  12
ATOM     12  C   UNL     1       5.115   0.953   2.628  0.00  0.00    +0.000 C 
BRANCH  12  13
ATOM     13  C   UNL     1       4.601   0.434   1.294  0.00  0.00    +0.000 C 
BRANCH  13  14
ATOM     14  C   UNL     1       3.077   0.441   1.285  0.00  0.00    +0.000 C 
BRANCH  14  16
ATOM     15  C   UNL     1       1.028  -0.087  -0.046  0.00  0.00    +0.000 C 
ATOM     16  C   UNL     1       2.545  -0.086  -0.040  0.00  0.00    +0.000 C 
ENDBRANCH  14  16
ENDBRANCH  13  14
ENDBRANCH  12  13
ENDBRANCH  11  12
ENDBRANCH   1  11
TORSDOF 7
