REMARK  Name = Hexylcaine
REMARK  7 active torsions:
REMARK  status: ('A' for Active; 'I' for Inactive)
REMARK    1  A    between atoms: C_1  and  C_2
REMARK    2  A    between atoms: C_2  and  C_3
REMARK    3  A    between atoms: C_2  and  O_11
REMARK    4  A    between atoms: C_3  and  N_4
REMARK    5  A    between atoms: N_4  and  C_5
REMARK    6  A    between atoms: O_11  and  C_12
REMARK    7  A    between atoms: C_12  and  C_14
REMARK                            x       y       z     vdW  Elec       q    Type
REMARK                         _______ _______ _______ _____ _____    ______ ____
ROOT
ATOM      1  C   UNL     1       1.100   0.071  -0.137  0.00  0.00    +0.000 C 
ATOM      2  C   UNL     1       2.636   0.047  -0.104  0.00  0.00    +0.000 C 
ENDROOT
BRANCH   2   3
ATOM      3  C   UNL     1       3.098  -1.280   0.522  0.00  0.00    +0.000 C 
BRANCH   3   4
ATOM      4  N   UNL     1       2.613  -1.499   1.891  0.00  0.00    +0.000 NA
ATOM      5  H   UNL     1       1.595  -1.505   1.904  0.00  0.00    +0.000 HD
BRANCH   4   6
ATOM      6  C   UNL     1       3.097  -2.775   2.430  0.00  0.00    +0.000 C 
ATOM      7  C   UNL     1       2.452  -2.993   3.808  0.00  0.00    +0.000 C 
ATOM      8  C   UNL     1       2.834  -4.352   4.390  0.00  0.00    +0.000 C 
ATOM      9  C   UNL     1       2.496  -5.489   3.430  0.00  0.00    +0.000 C 
ATOM     10  C   UNL     1       3.162  -5.280   2.081  0.00  0.00    +0.000 C 
ATOM     11  C   UNL     1       2.767  -3.944   1.488  0.00  0.00    +0.000 C 
ENDBRANCH   4   6
ENDBRANCH   3   4
ENDBRANCH   2   3
BRANCH   2  12
ATOM     12  O   UNL     1       3.124   0.170  -1.474  0.00  0.00    +0.000 OA
BRANCH  12  13
ATOM     13  C   UNL     1       4.475   0.184  -1.631  0.00  0.00    +0.000 C 
ATOM     14  O   UNL     1       5.315   0.099  -0.741  0.00  0.00    +0.000 OA
BRANCH  13  15
ATOM     15  C   UNL     1       4.888   0.309  -3.044  0.00  0.00    +0.000 A 
ATOM     16  C   UNL     1       5.989  -0.433  -3.503  0.00  0.00    +0.000 A 
ATOM     17  C   UNL     1       6.545  -0.161  -4.756  0.00  0.00    +0.000 A 
ATOM     18  C   UNL     1       5.966   0.805  -5.578  0.00  0.00    +0.000 A 
ATOM     19  C   UNL     1       4.858   1.528  -5.132  0.00  0.00    +0.000 A 
ATOM     20  C   UNL     1       4.321   1.288  -3.863  0.00  0.00    +0.000 A 
ENDBRANCH  13  15
ENDBRANCH  12  13
ENDBRANCH   2  12
TORSDOF 6
