REMARK  Name = Histamine
REMARK  3 active torsions:
REMARK  status: ('A' for Active; 'I' for Inactive)
REMARK    1  A    between atoms: N_1  and  C_2
REMARK    2  A    between atoms: C_2  and  C_3
REMARK    3  A    between atoms: C_3  and  C_4
REMARK                            x       y       z     vdW  Elec       q    Type
REMARK                         _______ _______ _______ _____ _____    ______ ____
ROOT
ATOM      1  C   UNL     1       4.499  -0.561   1.294  0.00  0.00    +0.000 A 
ATOM      2  C   UNL     1       5.309  -1.676   1.293  0.00  0.00    +0.000 A 
ATOM      3  N   UNL     1       6.587  -1.194   1.281  0.00  0.00    +0.000 N 
ATOM      4  C   UNL     1       6.511   0.170   1.286  0.00  0.00    +0.000 A 
ATOM      5  N   UNL     1       5.264   0.583   1.292  0.00  0.00    +0.000 NA
ATOM      6  H   UNL     1       7.435  -1.742   1.271  0.00  0.00    +0.000 HD
ENDROOT
BRANCH   1   7
ATOM      7  C   UNL     1       3.013  -0.505   1.288  0.00  0.00    +0.000 C 
BRANCH   7   8
ATOM      8  C   UNL     1       2.465  -0.059  -0.069  0.00  0.00    +0.000 C 
BRANCH   8   9
ATOM      9  N   UNL     1       0.999  -0.077  -0.081  0.00  0.00    +0.000 NA
ATOM     10  H   UNL     1       0.673   0.270  -0.981  0.00  0.00    +0.000 HD
ATOM     11  H   UNL     1       0.654   0.581   0.618  0.00  0.00    +0.000 HD
ENDBRANCH   8   9
ENDBRANCH   7   8
ENDBRANCH   1   7
TORSDOF 3
