REMARK  Name = Homatropine methylbromide
REMARK  7 active torsions:
REMARK  status: ('A' for Active; 'I' for Inactive)
REMARK    1  A    between atoms: C_2  and  N_3
REMARK    2  A    between atoms: N_3  and  C_4
REMARK    3  A    between atoms: C_10  and  O_12
REMARK    4  A    between atoms: O_12  and  C_13
REMARK    5  A    between atoms: C_13  and  C_15
REMARK    6  A    between atoms: C_15  and  O_16
REMARK    7  A    between atoms: C_15  and  C_17
REMARK                            x       y       z     vdW  Elec       q    Type
REMARK                         _______ _______ _______ _____ _____    ______ ____
ROOT
ATOM      1 BR   UNL     1      -0.571  -2.553   1.046  0.00  0.00    +0.000 Br
ENDROOT
TORSDOF 0
REMARK  Name = Homatropine methylbromide
REMARK  7 active torsions:
REMARK  status: ('A' for Active; 'I' for Inactive)
REMARK    1  A    between atoms: C_2  and  N_3
REMARK    2  A    between atoms: N_3  and  C_4
REMARK    3  A    between atoms: C_10  and  O_12
REMARK    4  A    between atoms: O_12  and  C_13
REMARK    5  A    between atoms: C_13  and  C_15
REMARK    6  A    between atoms: C_15  and  O_16
REMARK    7  A    between atoms: C_15  and  C_17
REMARK                            x       y       z     vdW  Elec       q    Type
REMARK                         _______ _______ _______ _____ _____    ______ ____
ROOT
ATOM      1  O   UNL     2       4.543  -0.010   3.197  0.00  0.00    +0.000 OA
ENDROOT
BRANCH   1  10
ATOM      2  C   UNL     2       0.930   0.209  -0.450  0.00  0.00    +0.000 C 
ATOM      3  N   UNL     2       2.721   0.130  -0.234  0.00  0.00    +0.000 N 
ATOM      4  C   UNL     2       3.093   0.001  -1.648  0.00  0.00    +0.000 C 
ATOM      5  C   UNL     2       2.933  -0.947   0.782  0.00  0.00    +0.000 C 
ATOM      6  C   UNL     2       2.103  -0.089   1.834  0.00  0.00    +0.000 C 
ATOM      7  C   UNL     2       2.097   1.638   1.222  0.00  0.00    +0.000 C 
ATOM      8  C   UNL     2       3.387   1.425   0.586  0.00  0.00    +0.000 C 
ATOM      9  C   UNL     2       4.859   1.257   0.923  0.00  0.00    +0.000 C 
ATOM     10  C   UNL     2       5.131   0.022   1.843  0.00  0.00    +0.000 C 
ATOM     11  C   UNL     2       4.500  -1.138   1.048  0.00  0.00    +0.000 C 
ENDBRANCH   1  10
BRANCH   1  12
ATOM     12  C   UNL     2       4.510   1.099   3.969  0.00  0.00    +0.000 C 
ATOM     13  O   UNL     2       5.209   2.097   3.660  0.00  0.00    +0.000 OA
BRANCH  12  14
ATOM     14  C   UNL     2       3.491   1.062   5.157  0.00  0.00    +0.000 C 
BRANCH  14  15
ATOM     15  C   UNL     2       3.578   2.325   6.019  0.00  0.00    +0.000 A 
ATOM     16  C   UNL     2       3.514   2.290   7.417  0.00  0.00    +0.000 A 
ATOM     17  C   UNL     2       3.469   3.482   8.148  0.00  0.00    +0.000 A 
ATOM     18  C   UNL     2       3.602   4.713   7.506  0.00  0.00    +0.000 A 
ATOM     19  C   UNL     2       3.701   4.766   6.124  0.00  0.00    +0.000 A 
ATOM     20  C   UNL     2       3.646   3.587   5.393  0.00  0.00    +0.000 A 
ENDBRANCH  14  15
BRANCH  14  21
ATOM     21  O   UNL     2       3.661  -0.114   5.937  0.00  0.00    +0.000 OA
ATOM     22  H   UNL     2       4.570  -0.081   6.277  0.00  0.00    +0.000 HD
ENDBRANCH  14  21
ENDBRANCH  12  14
ENDBRANCH   1  12
TORSDOF 5
