REMARK  Name = Homatropine
REMARK  6 active torsions:
REMARK  status: ('A' for Active; 'I' for Inactive)
REMARK    1  A    between atoms: C_8  and  O_10
REMARK    2  A    between atoms: O_10  and  C_11
REMARK    3  A    between atoms: C_11  and  C_13
REMARK    4  A    between atoms: C_13  and  O_14
REMARK    5  A    between atoms: C_13  and  C_15
REMARK    6  A    between atoms: N_21  and  C_22
REMARK                            x       y       z     vdW  Elec       q    Type
REMARK                         _______ _______ _______ _____ _____    ______ ____
ROOT
ATOM      1  C   UNL     1       3.787  -0.222  -3.289  0.00  0.00    +0.000 C 
ATOM      2  O   UNL     1       2.946  -1.070  -3.592  0.00  0.00    +0.000 OA
ENDROOT
BRANCH   1   3
ATOM      3  O   UNL     1       4.379  -0.193  -2.066  0.00  0.00    +0.000 OA
BRANCH   3   9
ATOM      4  C   UNL     1       1.981   0.099   0.044  0.00  0.00    +0.000 C 
ATOM      5  C   UNL     1       2.607   1.428  -0.399  0.00  0.00    +0.000 C 
ATOM      6  C   UNL     1       3.968   1.464   0.316  0.00  0.00    +0.000 C 
ATOM      7  C   UNL     1       4.037   0.132   1.079  0.00  0.00    +0.000 C 
ATOM      8  C   UNL     1       4.636  -0.992   0.204  0.00  0.00    +0.000 C 
ATOM      9  C   UNL     1       3.878  -1.178  -1.123  0.00  0.00    +0.000 C 
ATOM     10  C   UNL     1       2.353  -1.062  -0.888  0.00  0.00    +0.000 C 
ATOM     11  N   UNL     1       2.608  -0.055   1.355  0.00  0.00    +0.000 NA
ATOM     12  C   UNL     1       2.231  -1.252   2.082  0.00  0.00    +0.000 C 
ENDBRANCH   3   9
ENDBRANCH   1   3
BRANCH   1  13
ATOM     13  C   UNL     1       4.289   0.897  -4.240  0.00  0.00    +0.000 C 
BRANCH  13  14
ATOM     14  C   UNL     1       3.589   0.806  -5.592  0.00  0.00    +0.000 A 
ATOM     15  C   UNL     1       3.048   1.932  -6.226  0.00  0.00    +0.000 A 
ATOM     16  C   UNL     1       2.225   1.771  -7.347  0.00  0.00    +0.000 A 
ATOM     17  C   UNL     1       1.990   0.502  -7.880  0.00  0.00    +0.000 A 
ATOM     18  C   UNL     1       2.568  -0.614  -7.294  0.00  0.00    +0.000 A 
ATOM     19  C   UNL     1       3.386  -0.456  -6.184  0.00  0.00    +0.000 A 
ENDBRANCH  13  14
BRANCH  13  20
ATOM     20  O   UNL     1       5.695   0.843  -4.441  0.00  0.00    +0.000 OA
ATOM     21  H   UNL     1       5.872   0.003  -4.897  0.00  0.00    +0.000 HD
ENDBRANCH  13  20
ENDBRANCH   1  13
TORSDOF 5
