REMARK  Name = Homosalate
REMARK  7 active torsions:
REMARK  status: ('A' for Active; 'I' for Inactive)
REMARK    1  A    between atoms: C_1  and  C_2
REMARK    2  A    between atoms: C_4  and  O_10
REMARK    3  A    between atoms: C_6  and  C_7
REMARK    4  A    between atoms: C_6  and  C_8
REMARK    5  A    between atoms: O_10  and  C_11
REMARK    6  A    between atoms: C_11  and  C_13
REMARK    7  A    between atoms: C_14  and  O_15
REMARK                            x       y       z     vdW  Elec       q    Type
REMARK                         _______ _______ _______ _____ _____    ______ ____
ROOT
ATOM      1  O   UNL     1       2.990  -3.145  -2.172  0.00  0.00    +0.000 OA
ENDROOT
BRANCH   1   5
ATOM      2  C   UNL     1       0.910  -0.070   0.286  0.00  0.00    +0.000 C 
ATOM      3  C   UNL     1       2.422  -0.065   0.036  0.00  0.00    +0.000 C 
ATOM      4  C   UNL     1       2.925  -1.463  -0.386  0.00  0.00    +0.000 C 
ATOM      5  C   UNL     1       2.493  -1.831  -1.821  0.00  0.00    +0.000 C 
ATOM      6  C   UNL     1       3.010  -0.753  -2.785  0.00  0.00    +0.000 C 
ATOM      7  C   UNL     1       2.476   0.650  -2.455  0.00  0.00    +0.000 C 
ATOM      8  C   UNL     1       0.959   0.736  -2.715  0.00  0.00    +0.000 C 
ATOM      9  C   UNL     1       3.110   1.650  -3.433  0.00  0.00    +0.000 C 
ATOM     10  C   UNL     1       2.868   0.992  -0.999  0.00  0.00    +0.000 C 
ENDBRANCH   1   5
BRANCH   1  11
ATOM     11  C   UNL     1       2.623  -3.598  -3.410  0.00  0.00    +0.000 C 
ATOM     12  O   UNL     1       1.950  -3.016  -4.238  0.00  0.00    +0.000 OA
BRANCH  11  13
ATOM     13  C   UNL     1       3.145  -4.955  -3.649  0.00  0.00    +0.000 A 
ATOM     14  C   UNL     1       3.001  -5.975  -2.707  0.00  0.00    +0.000 A 
ATOM     15  C   UNL     1       3.417  -7.269  -3.016  0.00  0.00    +0.000 A 
ATOM     16  C   UNL     1       3.965  -7.553  -4.268  0.00  0.00    +0.000 A 
ATOM     17  C   UNL     1       4.099  -6.542  -5.219  0.00  0.00    +0.000 A 
ATOM     18  C   UNL     1       3.687  -5.243  -4.913  0.00  0.00    +0.000 A 
BRANCH  14  19
ATOM     19  O   UNL     1       2.421  -5.805  -1.481  0.00  0.00    +0.000 OA
ATOM     20  H   UNL     1       2.214  -4.862  -1.353  0.00  0.00    +0.000 HD
ENDBRANCH  14  19
ENDBRANCH  11  13
ENDBRANCH   1  11
TORSDOF 4
