REMARK  Name = Huperzine A
REMARK  3 active torsions:
REMARK  status: ('A' for Active; 'I' for Inactive)
REMARK    1  A    between atoms: C_11  and  N_12
REMARK    2  A    between atoms: C_14  and  C_15
REMARK    3  A    between atoms: C_18  and  C_19
REMARK                            x       y       z     vdW  Elec       q    Type
REMARK                         _______ _______ _______ _____ _____    ______ ____
ROOT
ATOM      1  C   UNL     1       2.181  -0.288   0.076  0.00  0.00    +0.000 C 
ATOM      2  C   UNL     1       2.694   1.160  -0.428  0.00  0.00    +0.000 C 
ATOM      3  C   UNL     1       4.158   1.226  -0.816  0.00  0.00    +0.000 A 
ATOM      4  C   UNL     1       4.856   0.086  -0.992  0.00  0.00    +0.000 A 
ATOM      5  C   UNL     1       6.296   0.164  -1.162  0.00  0.00    +0.000 A 
ATOM      6  C   UNL     1       6.930   1.332  -1.267  0.00  0.00    +0.000 A 
ATOM      7  C   UNL     1       6.156   2.599  -1.202  0.00  0.00    +0.000 A 
ATOM      8  O   UNL     1       6.705   3.667  -1.319  0.00  0.00    +0.000 OA
ATOM      9  N   UNL     1       4.795   2.446  -0.967  0.00  0.00    +0.000 N 
ATOM     10  C   UNL     1       4.215  -1.292  -0.818  0.00  0.00    +0.000 C 
ATOM     11  C   UNL     1       4.631  -1.654   0.675  0.00  0.00    +0.000 C 
ATOM     12  C   UNL     1       3.458  -2.234   1.424  0.00  0.00    +0.000 C 
ATOM     13  C   UNL     1       3.469  -3.831   1.114  0.00  0.00    +0.000 C 
ATOM     14  C   UNL     1       2.524  -1.185   1.444  0.00  0.00    +0.000 C 
ATOM     15  C   UNL     1       2.660  -1.233  -0.990  0.00  0.00    +0.000 C 
ATOM     16  C   UNL     1       1.782  -2.252  -1.124  0.00  0.00    +0.000 C 
ATOM     17  C   UNL     1       1.597  -3.462  -1.931  0.00  0.00    +0.000 C 
ATOM     18  H   UNL     1       4.283   3.320  -0.919  0.00  0.00    +0.000 HD
ENDROOT
BRANCH  10  19
ATOM     19  N   UNL     1       4.709  -2.255  -1.793  0.00  0.00    +0.000 NA
ATOM     20  H   UNL     1       5.705  -2.381  -1.676  0.00  0.00    +0.000 HD
ATOM     21  H   UNL     1       4.554  -1.845  -2.712  0.00  0.00    +0.000 HD
ENDBRANCH  10  19
TORSDOF 1
