REMARK  Name = Hydroxyzine
REMARK  9 active torsions:
REMARK  status: ('A' for Active; 'I' for Inactive)
REMARK    1  A    between atoms: O_1  and  C_2
REMARK    2  A    between atoms: C_2  and  C_3
REMARK    3  A    between atoms: C_3  and  O_4
REMARK    4  A    between atoms: O_4  and  C_5
REMARK    5  A    between atoms: C_5  and  C_6
REMARK    6  A    between atoms: C_6  and  N_7
REMARK    7  A    between atoms: N_10  and  C_13
REMARK    8  A    between atoms: C_13  and  C_14
REMARK    9  A    between atoms: C_13  and  C_20
REMARK                            x       y       z     vdW  Elec       q    Type
REMARK                         _______ _______ _______ _____ _____    ______ ____
ROOT
ATOM      1  C   UNL     1       8.711  -5.230   2.809  0.00  0.00    +0.000 C 
ENDROOT
BRANCH   1   2
ATOM      2  C   UNL     1       9.199  -6.665   3.056  0.00  0.00    +0.000 A 
ATOM      3  C   UNL     1      10.099  -6.952   4.099  0.00  0.00    +0.000 A 
ATOM      4  C   UNL     1      10.631  -8.228   4.268  0.00  0.00    +0.000 A 
ATOM      5  C   UNL     1      10.228  -9.247   3.430  0.00  0.00    +0.000 A 
ATOM      6 CL   UNL     1      10.803 -10.841   3.699  0.00  0.00    +0.000 Cl
ATOM      7  C   UNL     1       9.377  -8.993   2.362  0.00  0.00    +0.000 A 
ATOM      8  C   UNL     1       8.923  -7.690   2.147  0.00  0.00    +0.000 A 
ENDBRANCH   1   2
BRANCH   1  12
ATOM      9  N   UNL     1       7.075  -3.753  -0.006  0.00  0.00    +0.000 NA
ATOM     10  C   UNL     1       7.782  -3.160   1.141  0.00  0.00    +0.000 C 
ATOM     11  C   UNL     1       7.027  -3.559   2.442  0.00  0.00    +0.000 C 
ATOM     12  N   UNL     1       7.230  -5.002   2.735  0.00  0.00    +0.000 NA
ATOM     13  C   UNL     1       6.515  -5.699   1.638  0.00  0.00    +0.000 C 
ATOM     14  C   UNL     1       6.926  -5.212   0.212  0.00  0.00    +0.000 C 
BRANCH   9  15
ATOM     15  C   UNL     1       5.987  -2.804  -0.234  0.00  0.00    +0.000 C 
BRANCH  15  16
ATOM     16  C   UNL     1       4.487  -2.977  -0.198  0.00  0.00    +0.000 C 
BRANCH  16  17
ATOM     17  O   UNL     1       4.049  -1.597  -0.144  0.00  0.00    +0.000 OA
BRANCH  17  18
ATOM     18  C   UNL     1       2.654  -1.468  -0.020  0.00  0.00    +0.000 C 
BRANCH  18  19
ATOM     19  C   UNL     1       2.264   0.003   0.034  0.00  0.00    +0.000 C 
BRANCH  19  20
ATOM     20  O   UNL     1       0.844   0.081   0.056  0.00  0.00    +0.000 OA
ATOM     21  H   UNL     1       0.607   1.023   0.062  0.00  0.00    +0.000 HD
ENDBRANCH  19  20
ENDBRANCH  18  19
ENDBRANCH  17  18
ENDBRANCH  16  17
ENDBRANCH  15  16
ENDBRANCH   9  15
ENDBRANCH   1  12
BRANCH   1  22
ATOM     22  C   UNL     1       9.305  -4.245   3.840  0.00  0.00    +0.000 A 
ATOM     23  C   UNL     1      10.337  -3.352   3.509  0.00  0.00    +0.000 A 
ATOM     24  C   UNL     1      11.019  -2.691   4.529  0.00  0.00    +0.000 A 
ATOM     25  C   UNL     1      10.644  -2.882   5.859  0.00  0.00    +0.000 A 
ATOM     26  C   UNL     1       9.545  -3.675   6.180  0.00  0.00    +0.000 A 
ATOM     27  C   UNL     1       8.851  -4.321   5.169  0.00  0.00    +0.000 A 
ENDBRANCH   1  22
TORSDOF 9
