REMARK  Name = Hydrocortisone succinate
REMARK  12 active torsions:
REMARK  status: ('A' for Active; 'I' for Inactive)
REMARK    1  A    between atoms: C_5  and  O_6
REMARK    2  A    between atoms: C_5  and  C_7
REMARK    3  A    between atoms: C_7  and  C_9
REMARK    4  A    between atoms: C_9  and  O_10
REMARK    5  A    between atoms: O_10  and  C_11
REMARK    6  A    between atoms: C_11  and  C_13
REMARK    7  A    between atoms: C_13  and  C_14
REMARK    8  A    between atoms: C_14  and  C_15
REMARK    9  A    between atoms: C_15  and  O_16
REMARK   10  A    between atoms: C_18  and  C_19
REMARK   11  A    between atoms: C_21  and  O_22
REMARK   12  A    between atoms: C_35  and  C_36
REMARK                            x       y       z     vdW  Elec       q    Type
REMARK                         _______ _______ _______ _____ _____    ______ ____
ROOT
ATOM      1  C   UNL     1       1.799  -0.052  -0.064  0.00  0.00    +0.000 C 
ATOM      2  C   UNL     1       2.203  -0.067  -1.422  0.00  0.00    +0.000 C 
ATOM      3  C   UNL     1       3.249  -0.433  -0.414  0.00  0.00    +0.000 C 
ATOM      4  C   UNL     1       2.596  -1.000   1.507  0.00  0.00    +0.000 C 
ATOM      5  C   UNL     1       2.732  -1.685   0.312  0.00  0.00    +0.000 C 
ATOM      6  C   UNL     1       2.008  -2.877  -0.166  0.00  0.00    +0.000 C 
ATOM      7  C   UNL     1       4.552  -1.557   0.818  0.00  0.00    +0.000 C 
ATOM      8  C   UNL     1       4.875  -0.057   1.611  0.00  0.00    +0.000 C 
ATOM      9  C   UNL     1       4.276   1.373   1.009  0.00  0.00    +0.000 C 
ATOM     10  C   UNL     1       2.550   1.359   0.819  0.00  0.00    +0.000 C 
ATOM     11  C   UNL     1       2.081   2.600   0.088  0.00  0.00    +0.000 C 
ATOM     12  C   UNL     1       2.623   3.860   0.708  0.00  0.00    +0.000 C 
ATOM     13  C   UNL     1       4.105   3.901   0.934  0.00  0.00    +0.000 C 
ATOM     14  C   UNL     1       4.787   5.025   0.672  0.00  0.00    +0.000 C 
ATOM     15  C   UNL     1       6.120   5.071   1.273  0.00  0.00    +0.000 C 
ATOM     16  O   UNL     1       6.364   5.235   2.466  0.00  0.00    +0.000 OA
ATOM     17  C   UNL     1       7.096   4.399   0.453  0.00  0.00    +0.000 C 
ATOM     18  C   UNL     1       6.539   2.923   1.136  0.00  0.00    +0.000 C 
ATOM     19  C   UNL     1       4.828   2.724   1.582  0.00  0.00    +0.000 C 
ATOM     20  C   UNL     1       4.370   2.696   3.060  0.00  0.00    +0.000 C 
ENDROOT
BRANCH   4  21
ATOM     21  O   UNL     1       1.139  -0.966   1.802  0.00  0.00    +0.000 OA
ATOM     22  H   UNL     1       0.944  -1.073   2.744  0.00  0.00    +0.000 HD
ENDBRANCH   4  21
BRANCH   4  23
ATOM     23  C   UNL     1       2.859  -2.465   2.616  0.00  0.00    +0.000 C 
ATOM     24  O   UNL     1       3.381  -3.525   2.219  0.00  0.00    +0.000 OA
BRANCH  23  25
ATOM     25  C   UNL     1       2.340  -2.608   4.180  0.00  0.00    +0.000 C 
BRANCH  25  26
ATOM     26  O   UNL     1       2.860  -3.925   4.785  0.00  0.00    +0.000 OA
BRANCH  26  27
ATOM     27  C   UNL     1       2.577  -4.309   6.079  0.00  0.00    +0.000 C 
ATOM     28  O   UNL     1       1.881  -3.647   6.839  0.00  0.00    +0.000 OA
BRANCH  27  29
ATOM     29  C   UNL     1       3.226  -5.658   6.501  0.00  0.00    +0.000 C 
BRANCH  29  30
ATOM     30  C   UNL     1       2.933  -6.046   7.969  0.00  0.00    +0.000 C 
BRANCH  30  31
ATOM     31  C   UNL     1       3.526  -7.343   8.504  0.00  0.00    +0.000 C 
ATOM     32  O   UNL     1       3.338  -7.717   9.656  0.00  0.00    +0.000 OA
BRANCH  31  33
ATOM     33  O   UNL     1       4.274  -8.081   7.664  0.00  0.00    +0.000 OA
ATOM     34  H   UNL     1       4.405  -7.759   6.757  0.00  0.00    +0.000 HD
ENDBRANCH  31  33
ENDBRANCH  30  31
ENDBRANCH  29  30
ENDBRANCH  27  29
ENDBRANCH  26  27
ENDBRANCH  25  26
ENDBRANCH  23  25
ENDBRANCH   4  23
BRANCH   8  35
ATOM     35  O   UNL     1       4.429  -0.247   2.971  0.00  0.00    +0.000 OA
ATOM     36  H   UNL     1       3.574   0.200   3.109  0.00  0.00    +0.000 HD
ENDBRANCH   8  35
TORSDOF 10
