REMARK  Name = Hydrocortisone probutate
REMARK  14 active torsions:
REMARK  status: ('A' for Active; 'I' for Inactive)
REMARK    1  A    between atoms: C_5  and  O_6
REMARK    2  A    between atoms: C_5  and  C_12
REMARK    3  A    between atoms: O_6  and  C_7
REMARK    4  A    between atoms: C_7  and  C_9
REMARK    5  A    between atoms: C_9  and  C_10
REMARK    6  A    between atoms: C_10  and  C_11
REMARK    7  A    between atoms: C_12  and  C_14
REMARK    8  A    between atoms: C_14  and  O_15
REMARK    9  A    between atoms: O_15  and  C_16
REMARK   10  A    between atoms: C_16  and  C_18
REMARK   11  A    between atoms: C_18  and  C_19
REMARK   12  A    between atoms: C_20  and  C_21
REMARK   13  A    between atoms: C_23  and  O_24
REMARK   14  A    between atoms: C_37  and  C_38
REMARK                            x       y       z     vdW  Elec       q    Type
REMARK                         _______ _______ _______ _____ _____    ______ ____
ROOT
ATOM      1  C   UNL     1       1.782  -0.004  -0.195  0.00  0.00    +0.000 C 
ATOM      2  C   UNL     1       2.197  -0.017  -1.550  0.00  0.00    +0.000 C 
ATOM      3  C   UNL     1       3.181  -0.371  -0.497  0.00  0.00    +0.000 C 
ATOM      4  C   UNL     1       2.415  -0.884   1.405  0.00  0.00    +0.000 C 
ATOM      5  C   UNL     1       2.667  -1.628   0.252  0.00  0.00    +0.000 C 
ATOM      6  C   UNL     1       1.930  -2.819  -0.225  0.00  0.00    +0.000 C 
ATOM      7  C   UNL     1       4.465  -1.492   0.786  0.00  0.00    +0.000 C 
ATOM      8  C   UNL     1       4.781   0.002   1.564  0.00  0.00    +0.000 C 
ATOM      9  C   UNL     1       4.224   1.440   0.933  0.00  0.00    +0.000 C 
ATOM     10  C   UNL     1       2.546   1.433   0.700  0.00  0.00    +0.000 C 
ATOM     11  C   UNL     1       2.034   2.677   0.005  0.00  0.00    +0.000 C 
ATOM     12  C   UNL     1       2.539   3.929   0.662  0.00  0.00    +0.000 C 
ATOM     13  C   UNL     1       4.018   3.974   0.896  0.00  0.00    +0.000 C 
ATOM     14  C   UNL     1       4.691   5.102   0.638  0.00  0.00    +0.000 C 
ATOM     15  C   UNL     1       6.022   5.145   1.240  0.00  0.00    +0.000 C 
ATOM     16  O   UNL     1       6.264   5.315   2.433  0.00  0.00    +0.000 OA
ATOM     17  C   UNL     1       6.995   4.463   0.423  0.00  0.00    +0.000 C 
ATOM     18  C   UNL     1       6.449   2.995   1.104  0.00  0.00    +0.000 C 
ATOM     19  C   UNL     1       4.744   2.791   1.539  0.00  0.00    +0.000 C 
ATOM     20  C   UNL     1       4.277   2.760   3.018  0.00  0.00    +0.000 C 
ENDROOT
BRANCH   4  21
ATOM     21  C   UNL     1       2.685  -2.331   2.552  0.00  0.00    +0.000 C 
ATOM     22  O   UNL     1       3.224  -3.392   2.163  0.00  0.00    +0.000 OA
BRANCH  21  23
ATOM     23  C   UNL     1       2.198  -2.495   4.120  0.00  0.00    +0.000 C 
BRANCH  23  24
ATOM     24  O   UNL     1       2.740  -3.835   4.724  0.00  0.00    +0.000 OA
BRANCH  24  25
ATOM     25  C   UNL     1       2.468  -4.227   6.022  0.00  0.00    +0.000 C 
ATOM     26  O   UNL     1       1.771  -3.562   6.781  0.00  0.00    +0.000 OA
BRANCH  25  27
ATOM     27  C   UNL     1       3.112  -5.578   6.469  0.00  0.00    +0.000 C 
ATOM     28  C   UNL     1       2.795  -5.931   7.941  0.00  0.00    +0.000 C 
ENDBRANCH  25  27
ENDBRANCH  24  25
ENDBRANCH  23  24
ENDBRANCH  21  23
ENDBRANCH   4  21
BRANCH   8  29
ATOM     29  O   UNL     1       4.315  -0.184   2.916  0.00  0.00    +0.000 OA
ATOM     30  H   UNL     1       3.463   0.266   3.060  0.00  0.00    +0.000 HD
ENDBRANCH   8  29
BRANCH   4  31
ATOM     31  O   UNL     1       0.787  -1.014   1.620  0.00  0.00    +0.000 OA
BRANCH  31  32
ATOM     32  C   UNL     1      -0.093   0.034   1.755  0.00  0.00    +0.000 C 
ATOM     33  O   UNL     1       0.251   1.205   1.860  0.00  0.00    +0.000 OA
BRANCH  32  34
ATOM     34  C   UNL     1      -1.579  -0.228   1.644  0.00  0.00    +0.000 C 
BRANCH  34  35
ATOM     35  C   UNL     1      -2.186   1.014   0.924  0.00  0.00    +0.000 C 
ATOM     36  C   UNL     1      -3.697   1.056   0.907  0.00  0.00    +0.000 C 
ENDBRANCH  34  35
ENDBRANCH  32  34
ENDBRANCH  31  32
ENDBRANCH   4  31
TORSDOF 10
