REMARK  Name = Hydrocortisone phosphate
REMARK  10 active torsions:
REMARK  status: ('A' for Active; 'I' for Inactive)
REMARK    1  A    between atoms: C_5  and  O_6
REMARK    2  A    between atoms: C_5  and  C_7
REMARK    3  A    between atoms: C_7  and  C_9
REMARK    4  A    between atoms: C_9  and  O_10
REMARK    5  A    between atoms: O_10  and  P_11
REMARK    6  A    between atoms: P_11  and  O_12
REMARK    7  A    between atoms: P_11  and  O_13
REMARK    8  A    between atoms: C_15  and  C_16
REMARK    9  A    between atoms: C_18  and  O_19
REMARK   10  A    between atoms: C_32  and  C_33
REMARK                            x       y       z     vdW  Elec       q    Type
REMARK                         _______ _______ _______ _____ _____    ______ ____
ROOT
ATOM      1  C   UNL     1       1.711  -0.109  -0.117  0.00  0.00    +0.000 C 
ATOM      2  C   UNL     1       2.114  -0.123  -1.476  0.00  0.00    +0.000 C 
ATOM      3  C   UNL     1       3.161  -0.491  -0.467  0.00  0.00    +0.000 C 
ATOM      4  C   UNL     1       2.509  -1.066   1.453  0.00  0.00    +0.000 C 
ATOM      5  C   UNL     1       2.644  -1.743   0.255  0.00  0.00    +0.000 C 
ATOM      6  C   UNL     1       1.919  -2.935  -0.223  0.00  0.00    +0.000 C 
ATOM      7  C   UNL     1       4.465  -1.613   0.763  0.00  0.00    +0.000 C 
ATOM      8  C   UNL     1       4.785  -0.115   1.560  0.00  0.00    +0.000 C 
ATOM      9  C   UNL     1       4.187   1.315   0.957  0.00  0.00    +0.000 C 
ATOM     10  C   UNL     1       2.462   1.301   0.766  0.00  0.00    +0.000 C 
ATOM     11  C   UNL     1       1.993   2.543   0.036  0.00  0.00    +0.000 C 
ATOM     12  C   UNL     1       2.535   3.803   0.655  0.00  0.00    +0.000 C 
ATOM     13  C   UNL     1       4.017   3.844   0.881  0.00  0.00    +0.000 C 
ATOM     14  C   UNL     1       4.698   4.968   0.619  0.00  0.00    +0.000 C 
ATOM     15  C   UNL     1       6.031   5.014   1.220  0.00  0.00    +0.000 C 
ATOM     16  O   UNL     1       6.274   5.178   2.414  0.00  0.00    +0.000 OA
ATOM     17  C   UNL     1       7.008   4.342   0.401  0.00  0.00    +0.000 C 
ATOM     18  C   UNL     1       6.451   2.866   1.083  0.00  0.00    +0.000 C 
ATOM     19  C   UNL     1       4.740   2.667   1.530  0.00  0.00    +0.000 C 
ATOM     20  C   UNL     1       4.281   2.639   3.007  0.00  0.00    +0.000 C 
ENDROOT
BRANCH   4  21
ATOM     21  O   UNL     1       1.053  -1.030   1.748  0.00  0.00    +0.000 OA
ATOM     22  H   UNL     1       0.856  -1.120   2.691  0.00  0.00    +0.000 HD
ENDBRANCH   4  21
BRANCH   4  23
ATOM     23  C   UNL     1       2.773  -2.546   2.550  0.00  0.00    +0.000 C 
ATOM     24  O   UNL     1       3.304  -3.599   2.148  0.00  0.00    +0.000 OA
BRANCH  23  25
ATOM     25  C   UNL     1       2.256  -2.731   4.119  0.00  0.00    +0.000 C 
BRANCH  25  26
ATOM     26  O   UNL     1       2.746  -4.074   4.761  0.00  0.00    +0.000 OA
BRANCH  26  27
ATOM     27  P   UNL     1       2.329  -4.366   6.415  0.00  0.00    +0.000 P 
ATOM     28  O   UNL     1       1.957  -4.627   7.895  0.00  0.00    +0.000 OA
BRANCH  27  29
ATOM     29  O   UNL     1       3.166  -5.756   6.205  0.00  0.00    +0.000 OA
ATOM     30  H   UNL     1       3.132  -6.055   5.280  0.00  0.00    +0.000 HD
ENDBRANCH  27  29
BRANCH  27  31
ATOM     31  O   UNL     1       3.612  -3.415   6.778  0.00  0.00    +0.000 OA
ATOM     32  H   UNL     1       3.988  -2.921   6.037  0.00  0.00    +0.000 HD
ENDBRANCH  27  31
ENDBRANCH  26  27
ENDBRANCH  25  26
ENDBRANCH  23  25
ENDBRANCH   4  23
BRANCH   8  33
ATOM     33  O   UNL     1       4.329  -0.310   2.919  0.00  0.00    +0.000 OA
ATOM     34  H   UNL     1       3.483   0.155   3.050  0.00  0.00    +0.000 HD
ENDBRANCH   8  33
TORSDOF 8
