REMARK  Name = Hydrocortisone valerate
REMARK  12 active torsions:
REMARK  status: ('A' for Active; 'I' for Inactive)
REMARK    1  A    between atoms: C_5  and  O_6
REMARK    2  A    between atoms: C_5  and  C_13
REMARK    3  A    between atoms: O_6  and  C_7
REMARK    4  A    between atoms: C_7  and  C_9
REMARK    5  A    between atoms: C_9  and  C_10
REMARK    6  A    between atoms: C_10  and  C_11
REMARK    7  A    between atoms: C_11  and  C_12
REMARK    8  A    between atoms: C_13  and  C_15
REMARK    9  A    between atoms: C_15  and  O_16
REMARK   10  A    between atoms: C_17  and  C_18
REMARK   11  A    between atoms: C_20  and  O_21
REMARK   12  A    between atoms: C_34  and  C_35
REMARK                            x       y       z     vdW  Elec       q    Type
REMARK                         _______ _______ _______ _____ _____    ______ ____
ROOT
ATOM      1  C   UNL     1       1.936  -0.080  -0.303  0.00  0.00    +0.000 C 
ATOM      2  C   UNL     1       2.350  -0.091  -1.658  0.00  0.00    +0.000 C 
ATOM      3  C   UNL     1       3.340  -0.443  -0.612  0.00  0.00    +0.000 C 
ATOM      4  C   UNL     1       2.569  -0.949   1.285  0.00  0.00    +0.000 C 
ATOM      5  C   UNL     1       2.822  -1.704   0.140  0.00  0.00    +0.000 C 
ATOM      6  C   UNL     1       2.082  -2.896  -0.332  0.00  0.00    +0.000 C 
ATOM      7  C   UNL     1       4.618  -1.569   0.682  0.00  0.00    +0.000 C 
ATOM      8  C   UNL     1       4.934  -0.074   1.461  0.00  0.00    +0.000 C 
ATOM      9  C   UNL     1       4.378   1.363   0.832  0.00  0.00    +0.000 C 
ATOM     10  C   UNL     1       2.700   1.356   0.597  0.00  0.00    +0.000 C 
ATOM     11  C   UNL     1       2.187   2.601  -0.095  0.00  0.00    +0.000 C 
ATOM     12  C   UNL     1       2.692   3.853   0.563  0.00  0.00    +0.000 C 
ATOM     13  C   UNL     1       4.171   3.898   0.797  0.00  0.00    +0.000 C 
ATOM     14  C   UNL     1       4.844   5.026   0.539  0.00  0.00    +0.000 C 
ATOM     15  C   UNL     1       6.174   5.069   1.141  0.00  0.00    +0.000 C 
ATOM     16  O   UNL     1       6.414   5.243   2.334  0.00  0.00    +0.000 OA
ATOM     17  C   UNL     1       7.146   4.384   0.326  0.00  0.00    +0.000 C 
ATOM     18  C   UNL     1       6.602   2.917   1.006  0.00  0.00    +0.000 C 
ATOM     19  C   UNL     1       4.898   2.714   1.439  0.00  0.00    +0.000 C 
ATOM     20  C   UNL     1       4.431   2.683   2.919  0.00  0.00    +0.000 C 
ENDROOT
BRANCH   4  21
ATOM     21  C   UNL     1       2.824  -2.382   2.413  0.00  0.00    +0.000 C 
ATOM     22  O   UNL     1       3.342  -3.463   2.053  0.00  0.00    +0.000 OA
BRANCH  21  23
ATOM     23  C   UNL     1       2.318  -2.497   3.926  0.00  0.00    +0.000 C 
BRANCH  23  24
ATOM     24  O   UNL     1       2.789  -3.728   4.577  0.00  0.00    +0.000 OA
ATOM     25  H   UNL     1       2.591  -4.490   3.996  0.00  0.00    +0.000 HD
ENDBRANCH  23  24
ENDBRANCH  21  23
ENDBRANCH   4  21
BRANCH   8  26
ATOM     26  O   UNL     1       4.471  -0.259   2.813  0.00  0.00    +0.000 OA
ATOM     27  H   UNL     1       3.617   0.186   2.961  0.00  0.00    +0.000 HD
ENDBRANCH   8  26
BRANCH   4  28
ATOM     28  O   UNL     1       0.940  -1.089   1.507  0.00  0.00    +0.000 OA
BRANCH  28  29
ATOM     29  C   UNL     1       0.060  -0.043   1.655  0.00  0.00    +0.000 C 
ATOM     30  O   UNL     1       0.406   1.126   1.767  0.00  0.00    +0.000 OA
BRANCH  29  31
ATOM     31  C   UNL     1      -1.426  -0.307   1.546  0.00  0.00    +0.000 C 
BRANCH  31  32
ATOM     32  C   UNL     1      -2.029   0.936   0.825  0.00  0.00    +0.000 C 
BRANCH  32  33
ATOM     33  C   UNL     1      -3.547   0.990   0.802  0.00  0.00    +0.000 C 
ATOM     34  C   UNL     1      -4.032   2.257   0.102  0.00  0.00    +0.000 C 
ENDBRANCH  32  33
ENDBRANCH  31  32
ENDBRANCH  29  31
ENDBRANCH  28  29
ENDBRANCH   4  28
TORSDOF 9
