REMARK  Name = Hydroquinone
REMARK  2 active torsions:
REMARK  status: ('A' for Active; 'I' for Inactive)
REMARK    1  A    between atoms: O_1  and  C_2
REMARK    2  A    between atoms: C_5  and  O_6
REMARK                            x       y       z     vdW  Elec       q    Type
REMARK                         _______ _______ _______ _____ _____    ______ ____
ROOT
ATOM      1  C   UNL     1      -1.381  -0.016   0.008  0.00  0.00    +0.000 A 
ATOM      2  C   UNL     1      -0.707   1.204   0.009  0.00  0.00    +0.000 A 
ATOM      3  C   UNL     1       0.691   1.218   0.007  0.00  0.00    +0.000 A 
ATOM      4  C   UNL     1       1.389   0.012   0.002  0.00  0.00    +0.000 A 
ATOM      5  C   UNL     1       0.713  -1.203   0.007  0.00  0.00    +0.000 A 
ATOM      6  C   UNL     1      -0.681  -1.217   0.011  0.00  0.00    +0.000 A 
ENDROOT
BRANCH   1   7
ATOM      7  O   UNL     1      -2.743  -0.078   0.001  0.00  0.00    +0.000 OA
ATOM      8  H   UNL     1      -3.099   0.825  -0.026  0.00  0.00    +0.000 HD
ENDBRANCH   1   7
BRANCH   4   9
ATOM      9  O   UNL     1       2.752  -0.026  -0.009  0.00  0.00    +0.000 OA
ATOM     10  H   UNL     1       3.093   0.883  -0.023  0.00  0.00    +0.000 HD
ENDBRANCH   4   9
TORSDOF 2
