REMARK  Name = Hydrochlorothiazide
REMARK  2 active torsions:
REMARK  status: ('A' for Active; 'I' for Inactive)
REMARK    1  A    between atoms: N_1  and  S_2
REMARK    2  A    between atoms: S_2  and  C_5
REMARK                            x       y       z     vdW  Elec       q    Type
REMARK                         _______ _______ _______ _____ _____    ______ ____
ROOT
ATOM      1  C   UNL     1       3.363   1.085   1.238  0.00  0.00    +0.000 A 
ATOM      2  C   UNL     1       4.134   0.758   2.354  0.00  0.00    +0.000 A 
ATOM      3 CL   UNL     1       4.693  -0.824   2.749  0.00  0.00    +0.000 Cl
ATOM      4  C   UNL     1       4.523   1.771   3.255  0.00  0.00    +0.000 A 
ATOM      5  C   UNL     1       4.143   3.107   3.082  0.00  0.00    +0.000 A 
ATOM      6  N   UNL     1       4.626   4.085   3.943  0.00  0.00    +0.000 N 
ATOM      7  C   UNL     1       3.906   5.325   4.067  0.00  0.00    +0.000 C 
ATOM      8  N   UNL     1       3.876   5.915   2.756  0.00  0.00    +0.000 NA
ATOM      9  S   UNL     1       2.862   5.079   1.717  0.00  0.00    +0.000 S 
ATOM     10  O   UNL     1       1.508   5.198   2.203  0.00  0.00    +0.000 OA
ATOM     11  O   UNL     1       3.239   5.456   0.372  0.00  0.00    +0.000 OA
ATOM     12  C   UNL     1       3.356   3.403   1.969  0.00  0.00    +0.000 A 
ATOM     13  C   UNL     1       2.984   2.426   1.036  0.00  0.00    +0.000 A 
ATOM     14  H   UNL     1       5.152   3.791   4.759  0.00  0.00    +0.000 HD
ATOM     15  H   UNL     1       4.799   6.035   2.346  0.00  0.00    +0.000 HD
ENDROOT
BRANCH   1  16
ATOM     16  S   UNL     1       2.883  -0.071  -0.019  0.00  0.00    +0.000 S 
ATOM     17  O   UNL     1       3.209  -1.431   0.343  0.00  0.00    +0.000 OA
ATOM     18  O   UNL     1       3.258   0.484  -1.295  0.00  0.00    +0.000 OA
BRANCH  16  19
ATOM     19  N   UNL     1       1.198   0.003   0.033  0.00  0.00    +0.000 NA
ATOM     20  H   UNL     1       0.830  -0.771  -0.530  0.00  0.00    +0.000 HD
ATOM     21  H   UNL     1       0.833   0.894  -0.300  0.00  0.00    +0.000 HD
ENDBRANCH  16  19
ENDBRANCH   1  16
TORSDOF 2
