REMARK  Name = Hydrocortisone
REMARK  7 active torsions:
REMARK  status: ('A' for Active; 'I' for Inactive)
REMARK    1  A    between atoms: C_5  and  O_6
REMARK    2  A    between atoms: C_5  and  C_7
REMARK    3  A    between atoms: C_7  and  C_9
REMARK    4  A    between atoms: C_9  and  O_10
REMARK    5  A    between atoms: C_11  and  C_12
REMARK    6  A    between atoms: C_14  and  O_15
REMARK    7  A    between atoms: C_28  and  C_29
REMARK                            x       y       z     vdW  Elec       q    Type
REMARK                         _______ _______ _______ _____ _____    ______ ____
ROOT
ATOM      1  C   UNL     1       1.732  -0.105  -0.105  0.00  0.00    +0.000 C 
ATOM      2  C   UNL     1       2.136  -0.119  -1.463  0.00  0.00    +0.000 C 
ATOM      3  C   UNL     1       3.186  -0.482  -0.461  0.00  0.00    +0.000 C 
ATOM      4  C   UNL     1       2.529  -1.044   1.456  0.00  0.00    +0.000 C 
ATOM      5  C   UNL     1       2.665  -1.739   0.267  0.00  0.00    +0.000 C 
ATOM      6  C   UNL     1       1.938  -2.931  -0.206  0.00  0.00    +0.000 C 
ATOM      7  C   UNL     1       4.483  -1.611   0.781  0.00  0.00    +0.000 C 
ATOM      8  C   UNL     1       4.807  -0.111   1.575  0.00  0.00    +0.000 C 
ATOM      9  C   UNL     1       4.208   1.318   0.975  0.00  0.00    +0.000 C 
ATOM     10  C   UNL     1       2.483   1.305   0.783  0.00  0.00    +0.000 C 
ATOM     11  C   UNL     1       2.013   2.547   0.055  0.00  0.00    +0.000 C 
ATOM     12  C   UNL     1       2.555   3.805   0.676  0.00  0.00    +0.000 C 
ATOM     13  C   UNL     1       4.037   3.847   0.901  0.00  0.00    +0.000 C 
ATOM     14  C   UNL     1       4.718   4.971   0.639  0.00  0.00    +0.000 C 
ATOM     15  C   UNL     1       6.050   5.017   1.241  0.00  0.00    +0.000 C 
ATOM     16  O   UNL     1       6.294   5.186   2.434  0.00  0.00    +0.000 OA
ATOM     17  C   UNL     1       7.026   4.342   0.423  0.00  0.00    +0.000 C 
ATOM     18  C   UNL     1       6.471   2.868   1.104  0.00  0.00    +0.000 C 
ATOM     19  C   UNL     1       4.760   2.669   1.550  0.00  0.00    +0.000 C 
ATOM     20  C   UNL     1       4.302   2.642   3.028  0.00  0.00    +0.000 C 
ENDROOT
BRANCH   4  21
ATOM     21  O   UNL     1       1.069  -1.017   1.756  0.00  0.00    +0.000 OA
ATOM     22  H   UNL     1       0.877  -1.114   2.701  0.00  0.00    +0.000 HD
ENDBRANCH   4  21
BRANCH   4  23
ATOM     23  C   UNL     1       2.777  -2.495   2.546  0.00  0.00    +0.000 C 
ATOM     24  O   UNL     1       3.277  -3.575   2.174  0.00  0.00    +0.000 OA
BRANCH  23  25
ATOM     25  C   UNL     1       2.243  -2.593   4.057  0.00  0.00    +0.000 C 
BRANCH  25  26
ATOM     26  O   UNL     1       2.683  -3.816   4.714  0.00  0.00    +0.000 OA
ATOM     27  H   UNL     1       2.489  -4.568   4.118  0.00  0.00    +0.000 HD
ENDBRANCH  25  26
ENDBRANCH  23  25
ENDBRANCH   4  23
BRANCH   8  28
ATOM     28  O   UNL     1       4.364  -0.298   2.935  0.00  0.00    +0.000 OA
ATOM     29  H   UNL     1       3.505   0.140   3.078  0.00  0.00    +0.000 HD
ENDBRANCH   8  28
TORSDOF 5
