REMARK  Name = Hydroxyamphetamine
REMARK  5 active torsions:
REMARK  status: ('A' for Active; 'I' for Inactive)
REMARK    1  A    between atoms: C_1  and  C_2
REMARK    2  A    between atoms: C_2  and  N_3
REMARK    3  A    between atoms: C_2  and  C_4
REMARK    4  A    between atoms: C_4  and  C_5
REMARK    5  A    between atoms: C_8  and  O_9
REMARK                            x       y       z     vdW  Elec       q    Type
REMARK                         _______ _______ _______ _____ _____    ______ ____
ROOT
ATOM      1  C   UNL     1       4.655   1.464   0.100  0.00  0.00    +0.000 A 
ATOM      2  C   UNL     1       5.429   0.294   0.129  0.00  0.00    +0.000 A 
ATOM      3  C   UNL     1       6.818   0.330   0.085  0.00  0.00    +0.000 A 
ATOM      4  C   UNL     1       7.453   1.562   0.049  0.00  0.00    +0.000 A 
ATOM      5  C   UNL     1       6.720   2.740   0.058  0.00  0.00    +0.000 A 
ATOM      6  C   UNL     1       5.322   2.699   0.079  0.00  0.00    +0.000 A 
ENDROOT
BRANCH   4   7
ATOM      7  O   UNL     1       8.813   1.638   0.001  0.00  0.00    +0.000 OA
ATOM      8  H   UNL     1       9.161   0.733  -0.031  0.00  0.00    +0.000 HD
ENDBRANCH   4   7
BRANCH   1   9
ATOM      9  C   UNL     1       3.136   1.432   0.063  0.00  0.00    +0.000 C 
BRANCH   9  11
ATOM     10  C   UNL     1       0.987   0.064   0.053  0.00  0.00    +0.000 C 
ATOM     11  C   UNL     1       2.508   0.017   0.014  0.00  0.00    +0.000 C 
BRANCH  11  12
ATOM     12  N   UNL     1       2.924  -0.713  -1.192  0.00  0.00    +0.000 NA
ATOM     13  H   UNL     1       2.631  -0.216  -2.030  0.00  0.00    +0.000 HD
ATOM     14  H   UNL     1       2.519  -1.644  -1.215  0.00  0.00    +0.000 HD
ENDBRANCH  11  12
ENDBRANCH   9  11
ENDBRANCH   1   9
TORSDOF 4
