REMARK  Name = Hydralazine
REMARK  1 active torsions:
REMARK  status: ('A' for Active; 'I' for Inactive)
REMARK    1  A    between atoms: N_1  and  N_2
REMARK                            x       y       z     vdW  Elec       q    Type
REMARK                         _______ _______ _______ _____ _____    ______ ____
ROOT
ATOM      1  N   UNL     1       2.437   0.004   0.195  0.00  0.00    +0.000 N 
ATOM      2  C   UNL     1       3.144   0.718  -0.813  0.00  0.00    +0.000 A 
ATOM      3  N   UNL     1       4.295   0.160  -1.267  0.00  0.00    +0.000 NA
ATOM      4  N   UNL     1       5.105   0.827  -2.148  0.00  0.00    +0.000 NA
ATOM      5  C   UNL     1       4.764   2.068  -2.549  0.00  0.00    +0.000 A 
ATOM      6  C   UNL     1       3.586   2.692  -2.146  0.00  0.00    +0.000 A 
ATOM      7  C   UNL     1       3.246   3.994  -2.573  0.00  0.00    +0.000 A 
ATOM      8  C   UNL     1       2.052   4.589  -2.158  0.00  0.00    +0.000 A 
ATOM      9  C   UNL     1       1.207   3.914  -1.294  0.00  0.00    +0.000 A 
ATOM     10  C   UNL     1       1.560   2.648  -0.837  0.00  0.00    +0.000 A 
ATOM     11  C   UNL     1       2.740   1.996  -1.265  0.00  0.00    +0.000 A 
ATOM     12  H   UNL     1       2.987  -0.826   0.427  0.00  0.00    +0.000 HD
ENDROOT
BRANCH   1  13
ATOM     13  N   UNL     1       1.034  -0.154   0.095  0.00  0.00    +0.000 NA
ATOM     14  H   UNL     1       0.671  -0.742   0.847  0.00  0.00    +0.000 HD
ATOM     15  H   UNL     1       0.754  -0.572  -0.795  0.00  0.00    +0.000 HD
ENDBRANCH   1  13
TORSDOF 1
