REMARK  Name = Hydroxycitronellal
REMARK  10 active torsions:
REMARK  status: ('A' for Active; 'I' for Inactive)
REMARK    1  A    between atoms: C_2  and  C_4
REMARK    2  A    between atoms: C_4  and  C_5
REMARK    3  A    between atoms: C_5  and  C_6
REMARK    4  A    between atoms: C_5  and  C_7
REMARK    5  A    between atoms: C_7  and  C_8
REMARK    6  A    between atoms: C_8  and  C_9
REMARK    7  A    between atoms: C_9  and  C_10
REMARK    8  A    between atoms: C_10  and  C_11
REMARK    9  A    between atoms: C_10  and  C_12
REMARK   10  A    between atoms: C_10  and  O_13
REMARK                            x       y       z     vdW  Elec       q    Type
REMARK                         _______ _______ _______ _____ _____    ______ ____
ROOT
ATOM      1  C   UNL     1       6.595   0.948   1.827  0.00  0.00    +0.000 C 
ENDROOT
BRANCH   1   2
ATOM      2  C   UNL     1       5.099   1.076   2.026  0.00  0.00    +0.000 C 
BRANCH   2   3
ATOM      3  C   UNL     1       4.363   0.492   0.806  0.00  0.00    +0.000 C 
ATOM      4  C   UNL     1       4.758   1.242  -0.480  0.00  0.00    +0.000 C 
BRANCH   3   5
ATOM      5  C   UNL     1       2.855   0.566   1.038  0.00  0.00    +0.000 C 
BRANCH   5   6
ATOM      6  C   UNL     1       2.058  -0.073  -0.075  0.00  0.00    +0.000 C 
ATOM      7  O   UNL     1       2.540  -0.703  -1.017  0.00  0.00    +0.000 OA
ENDBRANCH   5   6
ENDBRANCH   3   5
ENDBRANCH   2   3
ENDBRANCH   1   2
BRANCH   1   8
ATOM      8  C   UNL     1       7.411   1.534   2.963  0.00  0.00    +0.000 C 
BRANCH   8   9
ATOM      9  C   UNL     1       8.920   1.405   2.687  0.00  0.00    +0.000 C 
ATOM     10  C   UNL     1       9.335  -0.065   2.568  0.00  0.00    +0.000 C 
ATOM     11  C   UNL     1       9.330   2.171   1.424  0.00  0.00    +0.000 C 
BRANCH   9  12
ATOM     12  O   UNL     1       9.622   1.988   3.786  0.00  0.00    +0.000 OA
ATOM     13  H   UNL     1       9.372   1.503   4.591  0.00  0.00    +0.000 HD
ENDBRANCH   9  12
ENDBRANCH   8   9
ENDBRANCH   1   8
TORSDOF 7
