REMARK  Name = Hydroxychloroquine
REMARK  12 active torsions:
REMARK  status: ('A' for Active; 'I' for Inactive)
REMARK    1  A    between atoms: C_1  and  C_2
REMARK    2  A    between atoms: C_2  and  N_3
REMARK    3  A    between atoms: N_3  and  C_4
REMARK    4  A    between atoms: N_3  and  C_7
REMARK    5  A    between atoms: C_4  and  C_5
REMARK    6  A    between atoms: C_5  and  O_6
REMARK    7  A    between atoms: C_7  and  C_8
REMARK    8  A    between atoms: C_8  and  C_9
REMARK    9  A    between atoms: C_9  and  C_10
REMARK   10  A    between atoms: C_10  and  C_11
REMARK   11  A    between atoms: C_10  and  N_12
REMARK   12  A    between atoms: N_12  and  C_13
REMARK                            x       y       z     vdW  Elec       q    Type
REMARK                         _______ _______ _______ _____ _____    ______ ____
ROOT
ATOM      1  N   UNL     1       8.391  -4.355   0.110  0.00  0.00    +0.000 N 
ATOM      2  H   UNL     1       8.894  -3.546   0.471  0.00  0.00    +0.000 HD
ENDROOT
BRANCH   1   3
ATOM      3  C   UNL     1       9.136  -5.557   0.252  0.00  0.00    +0.000 A 
ATOM      4  C   UNL     1       8.889  -6.718  -0.533  0.00  0.00    +0.000 A 
ATOM      5  C   UNL     1       8.066  -6.719  -1.656  0.00  0.00    +0.000 A 
ATOM      6  C   UNL     1       7.500  -7.866  -2.179  0.00  0.00    +0.000 A 
ATOM      7  C   UNL     1       8.096  -9.063  -1.855  0.00  0.00    +0.000 A 
ATOM      8 CL   UNL     1       7.591 -10.478  -2.687  0.00  0.00    +0.000 Cl
ATOM      9  C   UNL     1       9.161  -9.077  -0.956  0.00  0.00    +0.000 A 
ATOM     10  C   UNL     1       9.546  -7.938  -0.242  0.00  0.00    +0.000 A 
ATOM     11  N   UNL     1      10.529  -7.991   0.661  0.00  0.00    +0.000 NA
ATOM     12  C   UNL     1      10.836  -6.858   1.336  0.00  0.00    +0.000 A 
ATOM     13  C   UNL     1      10.154  -5.649   1.200  0.00  0.00    +0.000 A 
ENDBRANCH   1   3
BRANCH   1  14
ATOM     14  C   UNL     1       6.918  -4.278   0.380  0.00  0.00    +0.000 C 
ATOM     15  C   UNL     1       6.102  -5.039  -0.663  0.00  0.00    +0.000 C 
BRANCH  14  16
ATOM     16  C   UNL     1       6.459  -2.798   0.314  0.00  0.00    +0.000 C 
BRANCH  16  17
ATOM     17  C   UNL     1       4.930  -2.723   0.313  0.00  0.00    +0.000 C 
BRANCH  17  18
ATOM     18  C   UNL     1       4.349  -1.337   0.154  0.00  0.00    +0.000 C 
BRANCH  18  19
ATOM     19  N   UNL     1       2.859  -1.364   0.096  0.00  0.00    +0.000 NA
BRANCH  19  21
ATOM     20  C   UNL     1       0.919   0.274   0.202  0.00  0.00    +0.000 C 
ATOM     21  C   UNL     1       2.414   0.041   0.048  0.00  0.00    +0.000 C 
ENDBRANCH  19  21
BRANCH  19  22
ATOM     22  C   UNL     1       2.372  -2.180  -1.046  0.00  0.00    +0.000 C 
BRANCH  22  23
ATOM     23  C   UNL     1       0.864  -2.431  -1.156  0.00  0.00    +0.000 C 
BRANCH  23  24
ATOM     24  O   UNL     1       0.594  -3.315  -2.241  0.00  0.00    +0.000 OA
ATOM     25  H   UNL     1       0.704  -2.776  -3.046  0.00  0.00    +0.000 HD
ENDBRANCH  23  24
ENDBRANCH  22  23
ENDBRANCH  19  22
ENDBRANCH  18  19
ENDBRANCH  17  18
ENDBRANCH  16  17
ENDBRANCH  14  16
ENDBRANCH   1  14
TORSDOF 10
