REMARK  Name = Hydroxyurea
REMARK  1 active torsions:
REMARK  status: ('A' for Active; 'I' for Inactive)
REMARK    1  A    between atoms: N_4  and  O_5
REMARK                            x       y       z     vdW  Elec       q    Type
REMARK                         _______ _______ _______ _____ _____    ______ ____
ROOT
ATOM      1  N   UNL     1       1.197   0.017   0.044  0.00  0.00    +0.000 N 
ATOM      2  C   UNL     1       2.550   0.067   0.047  0.00  0.00    +0.000 C 
ATOM      3  O   UNL     1       3.160   1.128   0.112  0.00  0.00    +0.000 OA
ATOM      4  N   UNL     1       3.160  -1.146  -0.026  0.00  0.00    +0.000 N 
ATOM      5  H   UNL     1       0.698   0.895   0.098  0.00  0.00    +0.000 HD
ATOM      6  H   UNL     1       0.668  -0.839  -0.008  0.00  0.00    +0.000 HD
ATOM      7  H   UNL     1       2.679  -2.032  -0.080  0.00  0.00    +0.000 HD
ENDROOT
BRANCH   4   8
ATOM      8  O   UNL     1       4.571  -1.176  -0.028  0.00  0.00    +0.000 OA
ATOM      9  H   UNL     1       4.802  -0.224   0.030  0.00  0.00    +0.000 HD
ENDBRANCH   4   8
TORSDOF 1
