REMARK  Name = Hydrocortisone acetate
REMARK  9 active torsions:
REMARK  status: ('A' for Active; 'I' for Inactive)
REMARK    1  A    between atoms: C_5  and  O_6
REMARK    2  A    between atoms: C_5  and  C_7
REMARK    3  A    between atoms: C_7  and  C_9
REMARK    4  A    between atoms: C_9  and  O_10
REMARK    5  A    between atoms: O_10  and  C_11
REMARK    6  A    between atoms: C_11  and  C_12
REMARK    7  A    between atoms: C_14  and  C_15
REMARK    8  A    between atoms: C_17  and  O_18
REMARK    9  A    between atoms: C_31  and  C_32
REMARK                            x       y       z     vdW  Elec       q    Type
REMARK                         _______ _______ _______ _____ _____    ______ ____
ROOT
ATOM      1  C   UNL     1       1.777   0.000  -0.068  0.00  0.00    +0.000 C 
ATOM      2  C   UNL     1       2.181  -0.014  -1.425  0.00  0.00    +0.000 C 
ATOM      3  C   UNL     1       3.228  -0.378  -0.418  0.00  0.00    +0.000 C 
ATOM      4  C   UNL     1       2.571  -0.940   1.500  0.00  0.00    +0.000 C 
ATOM      5  C   UNL     1       2.709  -1.633   0.311  0.00  0.00    +0.000 C 
ATOM      6  C   UNL     1       1.985  -2.826  -0.166  0.00  0.00    +0.000 C 
ATOM      7  C   UNL     1       4.529  -1.505   0.818  0.00  0.00    +0.000 C 
ATOM      8  C   UNL     1       4.852  -0.006   1.612  0.00  0.00    +0.000 C 
ATOM      9  C   UNL     1       4.254   1.424   1.010  0.00  0.00    +0.000 C 
ATOM     10  C   UNL     1       2.528   1.411   0.818  0.00  0.00    +0.000 C 
ATOM     11  C   UNL     1       2.059   2.653   0.089  0.00  0.00    +0.000 C 
ATOM     12  C   UNL     1       2.600   3.911   0.709  0.00  0.00    +0.000 C 
ATOM     13  C   UNL     1       4.082   3.953   0.935  0.00  0.00    +0.000 C 
ATOM     14  C   UNL     1       4.764   5.077   0.673  0.00  0.00    +0.000 C 
ATOM     15  C   UNL     1       6.096   5.123   1.274  0.00  0.00    +0.000 C 
ATOM     16  O   UNL     1       6.339   5.290   2.468  0.00  0.00    +0.000 OA
ATOM     17  C   UNL     1       7.072   4.449   0.456  0.00  0.00    +0.000 C 
ATOM     18  C   UNL     1       6.517   2.974   1.138  0.00  0.00    +0.000 C 
ATOM     19  C   UNL     1       4.806   2.776   1.584  0.00  0.00    +0.000 C 
ATOM     20  C   UNL     1       4.348   2.748   3.062  0.00  0.00    +0.000 C 
ENDROOT
BRANCH   4  21
ATOM     21  O   UNL     1       1.114  -0.903   1.798  0.00  0.00    +0.000 OA
ATOM     22  H   UNL     1       0.917  -1.021   2.737  0.00  0.00    +0.000 HD
ENDBRANCH   4  21
BRANCH   4  23
ATOM     23  C   UNL     1       2.825  -2.391   2.612  0.00  0.00    +0.000 C 
ATOM     24  O   UNL     1       3.343  -3.455   2.226  0.00  0.00    +0.000 OA
BRANCH  23  25
ATOM     25  C   UNL     1       2.288  -2.496   4.164  0.00  0.00    +0.000 C 
BRANCH  25  26
ATOM     26  O   UNL     1       2.778  -3.786   4.782  0.00  0.00    +0.000 OA
BRANCH  26  27
ATOM     27  C   UNL     1       2.605  -4.311   6.027  0.00  0.00    +0.000 C 
ATOM     28  C   UNL     1       1.779  -3.564   7.030  0.00  0.00    +0.000 C 
ATOM     29  O   UNL     1       3.113  -5.385   6.354  0.00  0.00    +0.000 OA
ENDBRANCH  26  27
ENDBRANCH  25  26
ENDBRANCH  23  25
ENDBRANCH   4  23
BRANCH   8  30
ATOM     30  O   UNL     1       4.404  -0.191   2.973  0.00  0.00    +0.000 OA
ATOM     31  H   UNL     1       3.549   0.255   3.106  0.00  0.00    +0.000 HD
ENDBRANCH   8  30
TORSDOF 6
