REMARK  Name = Hydroxyprogesterone caproate
REMARK  11 active torsions:
REMARK  status: ('A' for Active; 'I' for Inactive)
REMARK    1  A    between atoms: C_5  and  O_6
REMARK    2  A    between atoms: C_5  and  C_14
REMARK    3  A    between atoms: O_6  and  C_7
REMARK    4  A    between atoms: C_7  and  C_9
REMARK    5  A    between atoms: C_9  and  C_10
REMARK    6  A    between atoms: C_10  and  C_11
REMARK    7  A    between atoms: C_11  and  C_12
REMARK    8  A    between atoms: C_12  and  C_13
REMARK    9  A    between atoms: C_14  and  C_15
REMARK   10  A    between atoms: C_17  and  C_18
REMARK   11  A    between atoms: C_33  and  C_34
REMARK                            x       y       z     vdW  Elec       q    Type
REMARK                         _______ _______ _______ _____ _____    ______ ____
ROOT
ATOM      1  C   UNL     1       2.154  -0.021   0.027  0.00  0.00    +0.000 C 
ATOM      2  C   UNL     1       2.559   1.406   0.366  0.00  0.00    +0.000 C 
ATOM      3  C   UNL     1       2.592   1.458   1.902  0.00  0.00    +0.000 C 
ATOM      4  C   UNL     1       2.373   0.011   2.416  0.00  0.00    +0.000 C 
ATOM      5  C   UNL     1       2.722  -0.881   1.163  0.00  0.00    +0.000 C 
ATOM      6  C   UNL     1       4.253  -1.065   1.012  0.00  0.00    +0.000 C 
ATOM      7  C   UNL     1       2.020  -2.249   1.094  0.00  0.00    +0.000 C 
ATOM      8  C   UNL     1       2.126  -2.885  -0.305  0.00  0.00    +0.000 C 
ATOM      9  C   UNL     1       1.712  -1.950  -1.475  0.00  0.00    +0.000 C 
ATOM     10  C   UNL     1       2.363  -0.535  -1.379  0.00  0.00    +0.000 C 
ATOM     11  C   UNL     1       1.669   0.407  -2.377  0.00  0.00    +0.000 C 
ATOM     12  C   UNL     1       1.751  -0.111  -3.800  0.00  0.00    +0.000 C 
ATOM     13  C   UNL     1       1.344  -1.559  -3.930  0.00  0.00    +0.000 C 
ATOM     14  C   UNL     1       0.523  -1.918  -4.932  0.00  0.00    +0.000 C 
ATOM     15  C   UNL     1       0.269  -3.343  -5.241  0.00  0.00    +0.000 C 
ATOM     16  O   UNL     1      -0.469  -3.637  -6.177  0.00  0.00    +0.000 OA
ATOM     17  C   UNL     1       1.042  -4.375  -4.463  0.00  0.00    +0.000 C 
ATOM     18  C   UNL     1       1.205  -3.917  -3.019  0.00  0.00    +0.000 C 
ATOM     19  C   UNL     1       1.928  -2.547  -2.908  0.00  0.00    +0.000 C 
ATOM     20  C   UNL     1       3.432  -2.744  -3.196  0.00  0.00    +0.000 C 
ENDROOT
BRANCH   4  21
ATOM     21  C   UNL     1       3.268  -0.378   3.632  0.00  0.00    +0.000 C 
ATOM     22  C   UNL     1       4.304   0.578   4.198  0.00  0.00    +0.000 C 
ATOM     23  O   UNL     1       3.189  -1.506   4.138  0.00  0.00    +0.000 OA
ENDBRANCH   4  21
BRANCH   4  24
ATOM     24  O   UNL     1       0.981  -0.228   2.873  0.00  0.00    +0.000 OA
BRANCH  24  25
ATOM     25  C   UNL     1      -0.095   0.266   2.207  0.00  0.00    +0.000 C 
ATOM     26  O   UNL     1      -0.047   1.080   1.287  0.00  0.00    +0.000 OA
BRANCH  25  27
ATOM     27  C   UNL     1      -1.427  -0.202   2.710  0.00  0.00    +0.000 C 
BRANCH  27  28
ATOM     28  C   UNL     1      -2.460   0.100   1.607  0.00  0.00    +0.000 C 
BRANCH  28  29
ATOM     29  C   UNL     1      -3.883  -0.107   2.080  0.00  0.00    +0.000 C 
BRANCH  29  30
ATOM     30  C   UNL     1      -4.878   0.244   0.976  0.00  0.00    +0.000 C 
ATOM     31  C   UNL     1      -6.295   0.037   1.474  0.00  0.00    +0.000 C 
ENDBRANCH  29  30
ENDBRANCH  28  29
ENDBRANCH  27  28
ENDBRANCH  25  27
ENDBRANCH  24  25
ENDBRANCH   4  24
TORSDOF 7
