REMARK  Name = Hydrocortisone butyrate
REMARK  11 active torsions:
REMARK  status: ('A' for Active; 'I' for Inactive)
REMARK    1  A    between atoms: C_5  and  O_6
REMARK    2  A    between atoms: C_5  and  C_12
REMARK    3  A    between atoms: O_6  and  C_7
REMARK    4  A    between atoms: C_7  and  C_9
REMARK    5  A    between atoms: C_9  and  C_10
REMARK    6  A    between atoms: C_10  and  C_11
REMARK    7  A    between atoms: C_12  and  C_14
REMARK    8  A    between atoms: C_14  and  O_15
REMARK    9  A    between atoms: C_16  and  C_17
REMARK   10  A    between atoms: C_19  and  O_20
REMARK   11  A    between atoms: C_33  and  C_34
REMARK                            x       y       z     vdW  Elec       q    Type
REMARK                         _______ _______ _______ _____ _____    ______ ____
ROOT
ATOM      1  C   UNL     1       1.911   0.029  -0.281  0.00  0.00    +0.000 C 
ATOM      2  C   UNL     1       2.325   0.018  -1.636  0.00  0.00    +0.000 C 
ATOM      3  C   UNL     1       3.314  -0.333  -0.590  0.00  0.00    +0.000 C 
ATOM      4  C   UNL     1       2.543  -0.840   1.307  0.00  0.00    +0.000 C 
ATOM      5  C   UNL     1       2.796  -1.594   0.162  0.00  0.00    +0.000 C 
ATOM      6  C   UNL     1       2.056  -2.786  -0.310  0.00  0.00    +0.000 C 
ATOM      7  C   UNL     1       4.592  -1.460   0.704  0.00  0.00    +0.000 C 
ATOM      8  C   UNL     1       4.909   0.035   1.484  0.00  0.00    +0.000 C 
ATOM      9  C   UNL     1       4.352   1.473   0.854  0.00  0.00    +0.000 C 
ATOM     10  C   UNL     1       2.675   1.466   0.619  0.00  0.00    +0.000 C 
ATOM     11  C   UNL     1       2.162   2.710  -0.073  0.00  0.00    +0.000 C 
ATOM     12  C   UNL     1       2.666   3.962   0.585  0.00  0.00    +0.000 C 
ATOM     13  C   UNL     1       4.145   4.007   0.819  0.00  0.00    +0.000 C 
ATOM     14  C   UNL     1       4.818   5.136   0.562  0.00  0.00    +0.000 C 
ATOM     15  C   UNL     1       6.148   5.178   1.164  0.00  0.00    +0.000 C 
ATOM     16  O   UNL     1       6.388   5.352   2.356  0.00  0.00    +0.000 OA
ATOM     17  C   UNL     1       7.120   4.493   0.348  0.00  0.00    +0.000 C 
ATOM     18  C   UNL     1       6.576   3.027   1.028  0.00  0.00    +0.000 C 
ATOM     19  C   UNL     1       4.872   2.824   1.462  0.00  0.00    +0.000 C 
ATOM     20  C   UNL     1       4.405   2.792   2.942  0.00  0.00    +0.000 C 
ENDROOT
BRANCH   4  21
ATOM     21  C   UNL     1       2.798  -2.273   2.435  0.00  0.00    +0.000 C 
ATOM     22  O   UNL     1       3.316  -3.354   2.076  0.00  0.00    +0.000 OA
BRANCH  21  23
ATOM     23  C   UNL     1       2.292  -2.388   3.948  0.00  0.00    +0.000 C 
BRANCH  23  24
ATOM     24  O   UNL     1       2.763  -3.619   4.599  0.00  0.00    +0.000 OA
ATOM     25  H   UNL     1       2.565  -4.380   4.018  0.00  0.00    +0.000 HD
ENDBRANCH  23  24
ENDBRANCH  21  23
ENDBRANCH   4  21
BRANCH   8  26
ATOM     26  O   UNL     1       4.445  -0.150   2.835  0.00  0.00    +0.000 OA
ATOM     27  H   UNL     1       3.591   0.295   2.983  0.00  0.00    +0.000 HD
ENDBRANCH   8  26
BRANCH   4  28
ATOM     28  O   UNL     1       0.914  -0.978   1.530  0.00  0.00    +0.000 OA
BRANCH  28  29
ATOM     29  C   UNL     1       0.034   0.068   1.676  0.00  0.00    +0.000 C 
ATOM     30  O   UNL     1       0.379   1.238   1.787  0.00  0.00    +0.000 OA
BRANCH  29  31
ATOM     31  C   UNL     1      -1.452  -0.195   1.567  0.00  0.00    +0.000 C 
BRANCH  31  32
ATOM     32  C   UNL     1      -2.059   1.046   0.847  0.00  0.00    +0.000 C 
ATOM     33  C   UNL     1      -3.570   1.088   0.830  0.00  0.00    +0.000 C 
ENDBRANCH  31  32
ENDBRANCH  29  31
ENDBRANCH  28  29
ENDBRANCH   4  28
TORSDOF 8
