REMARK  Name = Hydroflumethiazide
REMARK  3 active torsions:
REMARK  status: ('A' for Active; 'I' for Inactive)
REMARK    1  A    between atoms: N_1  and  S_2
REMARK    2  A    between atoms: S_2  and  C_5
REMARK    3  A    between atoms: C_16  and  C_17
REMARK                            x       y       z     vdW  Elec       q    Type
REMARK                         _______ _______ _______ _____ _____    ______ ____
ROOT
ATOM      1  C   UNL     1       3.223  -0.839   1.354  0.00  0.00    +0.000 A 
ATOM      2  C   UNL     1       3.183  -2.253   1.372  0.00  0.00    +0.000 A 
ATOM      3  C   UNL     1       3.452  -2.968   2.554  0.00  0.00    +0.000 A 
ATOM      4  C   UNL     1       3.711  -2.332   3.761  0.00  0.00    +0.000 A 
ATOM      5  N   UNL     1       3.643  -2.961   4.995  0.00  0.00    +0.000 N 
ATOM      6  C   UNL     1       3.518  -4.392   5.155  0.00  0.00    +0.000 C 
ATOM      7  N   UNL     1       2.671  -4.937   4.124  0.00  0.00    +0.000 NA
ATOM      8  S   UNL     1       3.333  -4.726   2.597  0.00  0.00    +0.000 S 
ATOM      9  O   UNL     1       2.322  -5.133   1.648  0.00  0.00    +0.000 OA
ATOM     10  O   UNL     1       4.672  -5.271   2.590  0.00  0.00    +0.000 OA
ATOM     11  C   UNL     1       3.846  -0.939   3.702  0.00  0.00    +0.000 A 
ATOM     12  C   UNL     1       3.643  -0.165   2.512  0.00  0.00    +0.000 A 
ATOM     13  H   UNL     1       4.086  -2.492   5.779  0.00  0.00    +0.000 HD
ATOM     14  H   UNL     1       1.720  -4.578   4.153  0.00  0.00    +0.000 HD
ENDROOT
BRANCH  12  15
ATOM     15  C   UNL     1       3.903   1.313   2.692  0.00  0.00    +0.000 C 
ATOM     16  F   UNL     1       3.066   1.843   3.629  0.00  0.00    +0.000 F 
ATOM     17  F   UNL     1       5.165   1.528   3.167  0.00  0.00    +0.000 F 
ATOM     18  F   UNL     1       3.798   2.124   1.629  0.00  0.00    +0.000 F 
ENDBRANCH  12  15
BRANCH   1  19
ATOM     19  S   UNL     1       2.695  -0.070  -0.185  0.00  0.00    +0.000 S 
ATOM     20  O   UNL     1       3.025  -0.961  -1.268  0.00  0.00    +0.000 OA
ATOM     21  O   UNL     1       3.025   1.328  -0.264  0.00  0.00    +0.000 OA
BRANCH  19  22
ATOM     22  N   UNL     1       1.014  -0.072  -0.027  0.00  0.00    +0.000 NA
ATOM     23  H   UNL     1       0.634   0.388  -0.862  0.00  0.00    +0.000 HD
ATOM     24  H   UNL     1       0.701   0.449   0.794  0.00  0.00    +0.000 HD
ENDBRANCH  19  22
ENDBRANCH   1  19
TORSDOF 3
