REMARK  Name = Hydrocodone
REMARK  3 active torsions:
REMARK  status: ('A' for Active; 'I' for Inactive)
REMARK    1  A    between atoms: C_5  and  O_6
REMARK    2  A    between atoms: O_6  and  C_7
REMARK    3  A    between atoms: N_15  and  C_16
REMARK                            x       y       z     vdW  Elec       q    Type
REMARK                         _______ _______ _______ _____ _____    ______ ____
ROOT
ATOM      1  C   UNL     1       2.505   0.474  -0.064  0.00  0.00    +0.000 C 
ATOM      2  O   UNL     1       1.302   1.096  -0.840  0.00  0.00    +0.000 OA
ATOM      3  C   UNL     1       1.269   2.421  -0.451  0.00  0.00    +0.000 A 
ATOM      4  C   UNL     1       0.411   3.548  -0.837  0.00  0.00    +0.000 A 
ATOM      5  C   UNL     1       0.922   4.817  -0.515  0.00  0.00    +0.000 A 
ATOM      6  C   UNL     1       2.044   4.956   0.267  0.00  0.00    +0.000 A 
ATOM      7  C   UNL     1       2.639   3.851   0.760  0.00  0.00    +0.000 A 
ATOM      8  C   UNL     1       2.437   2.656   0.281  0.00  0.00    +0.000 A 
ATOM      9  C   UNL     1       3.735   1.786   0.525  0.00  0.00    +0.000 C 
ATOM     10  C   UNL     1       5.665   2.714   1.043  0.00  0.00    +0.000 C 
ATOM     11  C   UNL     1       5.702   3.227   2.902  0.00  0.00    +0.000 C 
ATOM     12  N   UNL     1       4.904   2.137   3.387  0.00  0.00    +0.000 NA
ATOM     13  C   UNL     1       3.881   2.486   4.319  0.00  0.00    +0.000 C 
ATOM     14  C   UNL     1       4.271   1.966   2.178  0.00  0.00    +0.000 C 
ATOM     15  C   UNL     1       3.721   3.730   1.680  0.00  0.00    +0.000 C 
ATOM     16  C   UNL     1       3.472   0.891   1.847  0.00  0.00    +0.000 C 
ATOM     17  C   UNL     1       4.360  -0.387   1.813  0.00  0.00    +0.000 C 
ATOM     18  C   UNL     1       3.563  -1.556   1.449  0.00  0.00    +0.000 C 
ATOM     19  C   UNL     1       2.665  -1.156   0.295  0.00  0.00    +0.000 C 
ATOM     20  O   UNL     1       1.924  -2.040  -0.149  0.00  0.00    +0.000 OA
ENDROOT
BRANCH   4  21
ATOM     21  O   UNL     1      -0.772   3.529  -1.582  0.00  0.00    +0.000 OA
ATOM     22  C   UNL     1      -1.326   4.833  -2.010  0.00  0.00    +0.000 C 
ENDBRANCH   4  21
TORSDOF 1
