REMARK  Name = Hydrocortamate
REMARK  14 active torsions:
REMARK  status: ('A' for Active; 'I' for Inactive)
REMARK    1  A    between atoms: C_5  and  O_6
REMARK    2  A    between atoms: C_5  and  C_7
REMARK    3  A    between atoms: C_7  and  C_9
REMARK    4  A    between atoms: C_9  and  O_10
REMARK    5  A    between atoms: O_10  and  C_11
REMARK    6  A    between atoms: C_11  and  C_13
REMARK    7  A    between atoms: C_13  and  N_14
REMARK    8  A    between atoms: N_14  and  C_15
REMARK    9  A    between atoms: N_14  and  C_17
REMARK   10  A    between atoms: C_15  and  C_16
REMARK   11  A    between atoms: C_17  and  C_18
REMARK   12  A    between atoms: C_19  and  C_20
REMARK   13  A    between atoms: C_22  and  O_23
REMARK   14  A    between atoms: C_36  and  C_37
REMARK                            x       y       z     vdW  Elec       q    Type
REMARK                         _______ _______ _______ _____ _____    ______ ____
ROOT
ATOM      1  C   UNL     1       1.777  -0.081  -0.246  0.00  0.00    +0.000 C 
ATOM      2  C   UNL     1       2.180  -0.095  -1.604  0.00  0.00    +0.000 C 
ATOM      3  C   UNL     1       3.229  -0.460  -0.598  0.00  0.00    +0.000 C 
ATOM      4  C   UNL     1       2.576  -1.029   1.322  0.00  0.00    +0.000 C 
ATOM      5  C   UNL     1       2.710  -1.714   0.127  0.00  0.00    +0.000 C 
ATOM      6  C   UNL     1       1.984  -2.905  -0.349  0.00  0.00    +0.000 C 
ATOM      7  C   UNL     1       4.531  -1.584   0.635  0.00  0.00    +0.000 C 
ATOM      8  C   UNL     1       4.852  -0.086   1.430  0.00  0.00    +0.000 C 
ATOM      9  C   UNL     1       4.253   1.343   0.830  0.00  0.00    +0.000 C 
ATOM     10  C   UNL     1       2.528   1.329   0.639  0.00  0.00    +0.000 C 
ATOM     11  C   UNL     1       2.058   2.570  -0.090  0.00  0.00    +0.000 C 
ATOM     12  C   UNL     1       2.601   3.829   0.529  0.00  0.00    +0.000 C 
ATOM     13  C   UNL     1       4.083   3.871   0.755  0.00  0.00    +0.000 C 
ATOM     14  C   UNL     1       4.765   4.994   0.493  0.00  0.00    +0.000 C 
ATOM     15  C   UNL     1       6.098   5.039   1.094  0.00  0.00    +0.000 C 
ATOM     16  O   UNL     1       6.344   5.204   2.287  0.00  0.00    +0.000 OA
ATOM     17  C   UNL     1       7.075   4.370   0.273  0.00  0.00    +0.000 C 
ATOM     18  C   UNL     1       6.516   2.893   0.957  0.00  0.00    +0.000 C 
ATOM     19  C   UNL     1       4.805   2.693   1.404  0.00  0.00    +0.000 C 
ATOM     20  C   UNL     1       4.346   2.665   2.881  0.00  0.00    +0.000 C 
ENDROOT
BRANCH   4  21
ATOM     21  O   UNL     1       1.118  -0.995   1.620  0.00  0.00    +0.000 OA
ATOM     22  H   UNL     1       0.925  -1.103   2.563  0.00  0.00    +0.000 HD
ENDBRANCH   4  21
BRANCH   4  23
ATOM     23  C   UNL     1       2.842  -2.497   2.413  0.00  0.00    +0.000 C 
ATOM     24  O   UNL     1       3.363  -3.554   2.006  0.00  0.00    +0.000 OA
BRANCH  23  25
ATOM     25  C   UNL     1       2.340  -2.648   3.954  0.00  0.00    +0.000 C 
BRANCH  25  26
ATOM     26  O   UNL     1       2.803  -4.004   4.505  0.00  0.00    +0.000 OA
BRANCH  26  27
ATOM     27  C   UNL     1       2.848  -4.203   5.868  0.00  0.00    +0.000 C 
ATOM     28  O   UNL     1       2.587  -3.284   6.638  0.00  0.00    +0.000 OA
BRANCH  27  29
ATOM     29  C   UNL     1       3.240  -5.680   6.335  0.00  0.00    +0.000 C 
BRANCH  29  30
ATOM     30  N   UNL     1       2.828  -6.016   7.764  0.00  0.00    +0.000 NA
BRANCH  30  31
ATOM     31  C   UNL     1       1.362  -6.150   7.921  0.00  0.00    +0.000 C 
ATOM     32  C   UNL     1       0.562  -4.920   7.561  0.00  0.00    +0.000 C 
ENDBRANCH  30  31
BRANCH  30  33
ATOM     33  C   UNL     1       3.470  -7.277   8.242  0.00  0.00    +0.000 C 
ATOM     34  C   UNL     1       3.171  -7.592   9.720  0.00  0.00    +0.000 C 
ENDBRANCH  30  33
ENDBRANCH  29  30
ENDBRANCH  27  29
ENDBRANCH  26  27
ENDBRANCH  25  26
ENDBRANCH  23  25
ENDBRANCH   4  23
BRANCH   8  35
ATOM     35  O   UNL     1       4.407  -0.276   2.790  0.00  0.00    +0.000 OA
ATOM     36  H   UNL     1       3.550   0.166   2.932  0.00  0.00    +0.000 HD
ENDBRANCH   8  35
TORSDOF 10
