REMARK  Name = Hydromorphone
REMARK  2 active torsions:
REMARK  status: ('A' for Active; 'I' for Inactive)
REMARK    1  A    between atoms: C_5  and  O_6
REMARK    2  A    between atoms: N_14  and  C_15
REMARK                            x       y       z     vdW  Elec       q    Type
REMARK                         _______ _______ _______ _____ _____    ______ ____
ROOT
ATOM      1  C   UNL     1       2.524   0.480  -0.190  0.00  0.00    +0.000 C 
ATOM      2  O   UNL     1       1.321   1.090  -0.968  0.00  0.00    +0.000 OA
ATOM      3  C   UNL     1       1.291   2.406  -0.573  0.00  0.00    +0.000 A 
ATOM      4  C   UNL     1       0.441   3.505  -0.945  0.00  0.00    +0.000 A 
ATOM      5  C   UNL     1       0.915   4.798  -0.652  0.00  0.00    +0.000 A 
ATOM      6  C   UNL     1       2.040   4.963   0.126  0.00  0.00    +0.000 A 
ATOM      7  C   UNL     1       2.649   3.863   0.626  0.00  0.00    +0.000 A 
ATOM      8  C   UNL     1       2.454   2.663   0.153  0.00  0.00    +0.000 A 
ATOM      9  C   UNL     1       3.752   1.797   0.397  0.00  0.00    +0.000 C 
ATOM     10  C   UNL     1       5.680   2.728   0.915  0.00  0.00    +0.000 C 
ATOM     11  C   UNL     1       5.716   3.242   2.773  0.00  0.00    +0.000 C 
ATOM     12  N   UNL     1       4.918   2.151   3.257  0.00  0.00    +0.000 NA
ATOM     13  C   UNL     1       3.895   2.500   4.190  0.00  0.00    +0.000 C 
ATOM     14  C   UNL     1       4.285   1.981   2.048  0.00  0.00    +0.000 C 
ATOM     15  C   UNL     1       3.732   3.745   1.547  0.00  0.00    +0.000 C 
ATOM     16  C   UNL     1       3.488   0.904   1.719  0.00  0.00    +0.000 C 
ATOM     17  C   UNL     1       4.375  -0.374   1.684  0.00  0.00    +0.000 C 
ATOM     18  C   UNL     1       3.578  -1.544   1.321  0.00  0.00    +0.000 C 
ATOM     19  C   UNL     1       2.682  -1.144   0.167  0.00  0.00    +0.000 C 
ATOM     20  O   UNL     1       1.937  -2.025  -0.278  0.00  0.00    +0.000 OA
ENDROOT
BRANCH   4  21
ATOM     21  O   UNL     1      -0.719   3.592  -1.677  0.00  0.00    +0.000 OA
ATOM     22  H   UNL     1      -1.165   2.759  -1.881  0.00  0.00    +0.000 HD
ENDBRANCH   4  21
TORSDOF 1
