REMARK  Name = Hydroxystilbamidine
REMARK  5 active torsions:
REMARK  status: ('A' for Active; 'I' for Inactive)
REMARK    1  A    between atoms: C_2  and  C_4
REMARK    2  A    between atoms: C_7  and  C_8
REMARK    3  A    between atoms: C_9  and  C_10
REMARK    4  A    between atoms: C_11  and  O_12
REMARK    5  A    between atoms: C_14  and  C_17
REMARK                            x       y       z     vdW  Elec       q    Type
REMARK                         _______ _______ _______ _____ _____    ______ ____
ROOT
ATOM      1  C   UNL     1       5.478  -1.002  -4.883  0.00  0.00    +0.000 C 
ATOM      2  C   UNL     1       5.123  -0.554  -6.098  0.00  0.00    +0.000 C 
ENDROOT
BRANCH   1   6
ATOM      3  C   UNL     1       3.255  -0.304  -1.293  0.00  0.00    +0.000 A 
ATOM      4  C   UNL     1       4.390  -1.117  -1.274  0.00  0.00    +0.000 A 
ATOM      5  C   UNL     1       5.139  -1.297  -2.443  0.00  0.00    +0.000 A 
ATOM      6  C   UNL     1       4.729  -0.710  -3.649  0.00  0.00    +0.000 A 
ATOM      7  C   UNL     1       3.592   0.112  -3.640  0.00  0.00    +0.000 A 
ATOM      8  C   UNL     1       2.857   0.314  -2.475  0.00  0.00    +0.000 A 
BRANCH   3  10
ATOM      9  N   UNL     1       1.163   0.150  -0.068  0.00  0.00    +0.000 N 
ATOM     10  C   UNL     1       2.521   0.008  -0.040  0.00  0.00    +0.000 C 
ATOM     11  N   UNL     1       3.195   0.182   1.041  0.00  0.00    +0.000 NA
ATOM     12  H   UNL     1       0.651   0.202   0.802  0.00  0.00    +0.000 HD
ATOM     13  H   UNL     1       0.643  -0.226  -0.852  0.00  0.00    +0.000 HD
ATOM     14  H   UNL     1       2.573   0.457   1.803  0.00  0.00    +0.000 HD
ENDBRANCH   3  10
ENDBRANCH   1   6
BRANCH   2  15
ATOM     15  C   UNL     1       5.823  -0.893  -7.336  0.00  0.00    +0.000 A 
ATOM     16  C   UNL     1       6.081   0.082  -8.305  0.00  0.00    +0.000 A 
ATOM     17  C   UNL     1       6.621  -0.262  -9.541  0.00  0.00    +0.000 A 
ATOM     18  C   UNL     1       7.004  -1.583  -9.805  0.00  0.00    +0.000 A 
ATOM     19  C   UNL     1       6.733  -2.566  -8.844  0.00  0.00    +0.000 A 
ATOM     20  C   UNL     1       6.134  -2.225  -7.627  0.00  0.00    +0.000 A 
BRANCH  18  21
ATOM     21  C   UNL     1       7.734  -1.906 -11.074  0.00  0.00    +0.000 C 
ATOM     22  N   UNL     1       7.977  -0.957 -12.014  0.00  0.00    +0.000 N 
ATOM     23  N   UNL     1       8.199  -3.085 -11.360  0.00  0.00    +0.000 NA
ATOM     24  H   UNL     1       7.843   0.031 -11.868  0.00  0.00    +0.000 HD
ATOM     25  H   UNL     1       8.602  -1.229 -12.763  0.00  0.00    +0.000 HD
ATOM     26  H   UNL     1       8.004  -3.775 -10.637  0.00  0.00    +0.000 HD
ENDBRANCH  18  21
BRANCH  16  27
ATOM     27  O   UNL     1       5.853   1.416  -8.096  0.00  0.00    +0.000 OA
ATOM     28  H   UNL     1       5.757   1.566  -7.139  0.00  0.00    +0.000 HD
ENDBRANCH  16  27
ENDBRANCH   2  15
TORSDOF 5
