REMARK  Name = Hydrocortisone cypionate
REMARK  11 active torsions:
REMARK  status: ('A' for Active; 'I' for Inactive)
REMARK    1  A    between atoms: C_5  and  O_6
REMARK    2  A    between atoms: C_5  and  C_7
REMARK    3  A    between atoms: C_7  and  C_9
REMARK    4  A    between atoms: C_9  and  O_10
REMARK    5  A    between atoms: O_10  and  C_11
REMARK    6  A    between atoms: C_11  and  C_13
REMARK    7  A    between atoms: C_13  and  C_14
REMARK    8  A    between atoms: C_14  and  C_15
REMARK    9  A    between atoms: C_20  and  C_21
REMARK   10  A    between atoms: C_23  and  O_24
REMARK   11  A    between atoms: C_37  and  C_38
REMARK                            x       y       z     vdW  Elec       q    Type
REMARK                         _______ _______ _______ _____ _____    ______ ____
ROOT
ATOM      1  C   UNL     1       1.685  -0.095  -0.149  0.00  0.00    +0.000 C 
ATOM      2  C   UNL     1       2.089  -0.110  -1.506  0.00  0.00    +0.000 C 
ATOM      3  C   UNL     1       3.135  -0.476  -0.498  0.00  0.00    +0.000 C 
ATOM      4  C   UNL     1       2.482  -1.043   1.423  0.00  0.00    +0.000 C 
ATOM      5  C   UNL     1       2.617  -1.728   0.228  0.00  0.00    +0.000 C 
ATOM      6  C   UNL     1       1.894  -2.920  -0.251  0.00  0.00    +0.000 C 
ATOM      7  C   UNL     1       4.438  -1.599   0.734  0.00  0.00    +0.000 C 
ATOM      8  C   UNL     1       4.761  -0.099   1.526  0.00  0.00    +0.000 C 
ATOM      9  C   UNL     1       4.162   1.330   0.925  0.00  0.00    +0.000 C 
ATOM     10  C   UNL     1       2.436   1.316   0.734  0.00  0.00    +0.000 C 
ATOM     11  C   UNL     1       1.967   2.558   0.004  0.00  0.00    +0.000 C 
ATOM     12  C   UNL     1       2.509   3.817   0.624  0.00  0.00    +0.000 C 
ATOM     13  C   UNL     1       3.991   3.859   0.850  0.00  0.00    +0.000 C 
ATOM     14  C   UNL     1       4.673   4.982   0.588  0.00  0.00    +0.000 C 
ATOM     15  C   UNL     1       6.006   5.028   1.189  0.00  0.00    +0.000 C 
ATOM     16  O   UNL     1       6.250   5.194   2.382  0.00  0.00    +0.000 OA
ATOM     17  C   UNL     1       6.982   4.356   0.369  0.00  0.00    +0.000 C 
ATOM     18  C   UNL     1       6.425   2.880   1.052  0.00  0.00    +0.000 C 
ATOM     19  C   UNL     1       4.714   2.681   1.498  0.00  0.00    +0.000 C 
ATOM     20  C   UNL     1       4.256   2.654   2.976  0.00  0.00    +0.000 C 
ENDROOT
BRANCH   4  21
ATOM     21  O   UNL     1       1.026  -1.004   1.719  0.00  0.00    +0.000 OA
ATOM     22  H   UNL     1       0.831  -1.122   2.660  0.00  0.00    +0.000 HD
ENDBRANCH   4  21
BRANCH   4  23
ATOM     23  C   UNL     1       2.745  -2.508   2.531  0.00  0.00    +0.000 C 
ATOM     24  O   UNL     1       3.266  -3.567   2.130  0.00  0.00    +0.000 OA
BRANCH  23  25
ATOM     25  C   UNL     1       2.228  -2.652   4.094  0.00  0.00    +0.000 C 
BRANCH  25  26
ATOM     26  O   UNL     1       2.749  -3.964   4.700  0.00  0.00    +0.000 OA
BRANCH  26  27
ATOM     27  C   UNL     1       2.464  -4.338   5.997  0.00  0.00    +0.000 C 
ATOM     28  O   UNL     1       1.763  -3.666   6.744  0.00  0.00    +0.000 OA
BRANCH  27  29
ATOM     29  C   UNL     1       3.105  -5.687   6.438  0.00  0.00    +0.000 C 
BRANCH  29  30
ATOM     30  C   UNL     1       2.777  -6.069   7.918  0.00  0.00    +0.000 C 
BRANCH  30  31
ATOM     31  C   UNL     1       3.424  -7.387   8.403  0.00  0.00    +0.000 C 
ATOM     32  C   UNL     1       2.924  -7.892   9.766  0.00  0.00    +0.000 C 
ATOM     33  C   UNL     1       3.344  -9.359   9.779  0.00  0.00    +0.000 C 
ATOM     34  C   UNL     1       3.137  -9.828   8.346  0.00  0.00    +0.000 C 
ATOM     35  C   UNL     1       3.160  -8.574   7.474  0.00  0.00    +0.000 C 
ENDBRANCH  30  31
ENDBRANCH  29  30
ENDBRANCH  27  29
ENDBRANCH  26  27
ENDBRANCH  25  26
ENDBRANCH  23  25
ENDBRANCH   4  23
BRANCH   8  36
ATOM     36  O   UNL     1       4.316  -0.288   2.887  0.00  0.00    +0.000 OA
ATOM     37  H   UNL     1       3.458   0.154   3.026  0.00  0.00    +0.000 HD
ENDBRANCH   8  36
TORSDOF 9
