REMARK  Name = Hyoscyamine
REMARK  7 active torsions:
REMARK  status: ('A' for Active; 'I' for Inactive)
REMARK    1  A    between atoms: C_1  and  N_2
REMARK    2  A    between atoms: C_8  and  O_10
REMARK    3  A    between atoms: O_10  and  C_11
REMARK    4  A    between atoms: C_11  and  C_13
REMARK    5  A    between atoms: C_13  and  C_14
REMARK    6  A    between atoms: C_13  and  C_16
REMARK    7  A    between atoms: C_14  and  O_15
REMARK                            x       y       z     vdW  Elec       q    Type
REMARK                         _______ _______ _______ _____ _____    ______ ____
ROOT
ATOM      1  C   UNL     1       5.498  -0.626   0.103  0.00  0.00    +0.000 C 
ATOM      2  O   UNL     1       6.690  -0.329   0.172  0.00  0.00    +0.000 OA
ENDROOT
BRANCH   1   3
ATOM      3  O   UNL     1       4.814  -1.241   1.107  0.00  0.00    +0.000 OA
BRANCH   3  11
ATOM      4  C   UNL     1       6.162  -4.837   3.978  0.00  0.00    +0.000 C 
ATOM      5  N   UNL     1       5.369  -4.678   2.775  0.00  0.00    +0.000 NA
ATOM      6  C   UNL     1       6.086  -4.138   1.620  0.00  0.00    +0.000 C 
ATOM      7  C   UNL     1       4.947  -4.131   0.595  0.00  0.00    +0.000 C 
ATOM      8  C   UNL     1       3.671  -3.953   1.431  0.00  0.00    +0.000 C 
ATOM      9  C   UNL     1       4.178  -3.829   2.873  0.00  0.00    +0.000 C 
ATOM     10  C   UNL     1       4.515  -2.362   3.235  0.00  0.00    +0.000 C 
ATOM     11  C   UNL     1       5.539  -1.714   2.273  0.00  0.00    +0.000 C 
ATOM     12  C   UNL     1       6.637  -2.727   1.898  0.00  0.00    +0.000 C 
ENDBRANCH   3  11
ENDBRANCH   1   3
BRANCH   1  13
ATOM     13  C   UNL     1       4.620  -0.347  -1.125  0.00  0.00    +0.000 C 
BRANCH  13  14
ATOM     14  C   UNL     1       5.355  -0.740  -2.408  0.00  0.00    +0.000 A 
ATOM     15  C   UNL     1       5.419  -2.075  -2.840  0.00  0.00    +0.000 A 
ATOM     16  C   UNL     1       6.203  -2.442  -3.932  0.00  0.00    +0.000 A 
ATOM     17  C   UNL     1       6.882  -1.469  -4.656  0.00  0.00    +0.000 A 
ATOM     18  C   UNL     1       6.818  -0.136  -4.255  0.00  0.00    +0.000 A 
ATOM     19  C   UNL     1       6.071   0.227  -3.132  0.00  0.00    +0.000 A 
ENDBRANCH  13  14
BRANCH  13  20
ATOM     20  C   UNL     1       3.229  -1.000  -1.026  0.00  0.00    +0.000 C 
BRANCH  20  21
ATOM     21  O   UNL     1       2.291  -0.411  -1.926  0.00  0.00    +0.000 OA
ATOM     22  H   UNL     1       2.496  -0.732  -2.822  0.00  0.00    +0.000 HD
ENDBRANCH  20  21
ENDBRANCH  13  20
ENDBRANCH   1  13
TORSDOF 6
