REMARK  Name = Hypochlorite
REMARK  0 active torsions:
REMARK  status: ('A' for Active; 'I' for Inactive)
REMARK                            x       y       z     vdW  Elec       q    Type
REMARK                         _______ _______ _______ _____ _____    ______ ____
ROOT
ATOM      1  O   UNL     1       0.941  -0.056  -0.031  0.00  0.00    +0.000 OA
ATOM      2 CL   UNL     1       2.585  -0.056  -0.031  0.00  0.00    +0.000 Cl
ENDROOT
TORSDOF 0
