REMARK  Name = Ibandronate
REMARK  16 active torsions:
REMARK  status: ('A' for Active; 'I' for Inactive)
REMARK    1  A    between atoms: C_1  and  C_2
REMARK    2  A    between atoms: C_2  and  C_3
REMARK    3  A    between atoms: C_3  and  C_4
REMARK    4  A    between atoms: C_4  and  C_5
REMARK    5  A    between atoms: C_5  and  N_6
REMARK    6  A    between atoms: N_6  and  C_7
REMARK    7  A    between atoms: N_6  and  C_8
REMARK    8  A    between atoms: C_8  and  C_9
REMARK    9  A    between atoms: C_9  and  C_10
REMARK   10  A    between atoms: C_10  and  O_11
REMARK   11  A    between atoms: C_10  and  P_12
REMARK   12  A    between atoms: C_10  and  P_16
REMARK   13  A    between atoms: P_12  and  O_13
REMARK   14  A    between atoms: P_12  and  O_14
REMARK   15  A    between atoms: P_16  and  O_17
REMARK   16  A    between atoms: P_16  and  O_18
REMARK                            x       y       z     vdW  Elec       q    Type
REMARK                         _______ _______ _______ _____ _____    ______ ____
ROOT
ATOM      1  C   UNL     1       8.984   2.777   4.984  0.00  0.00    +0.000 C 
ENDROOT
BRANCH   1   2
ATOM      2  O   UNL     1       8.601   4.194   4.939  0.00  0.00    +0.000 OA
ATOM      3  H   UNL     1       7.651   4.249   4.729  0.00  0.00    +0.000 HD
ENDBRANCH   1   2
BRANCH   1   4
ATOM      4  P   UNL     1       8.437   2.239   6.704  0.00  0.00    +0.000 P 
ATOM      5  O   UNL     1       7.732   0.950   6.761  0.00  0.00    +0.000 OA
BRANCH   4   6
ATOM      6  O   UNL     1       9.731   2.338   7.661  0.00  0.00    +0.000 OA
ATOM      7  H   UNL     1      10.630   2.050   7.415  0.00  0.00    +0.000 HD
ENDBRANCH   4   6
BRANCH   4   8
ATOM      8  O   UNL     1       7.606   3.529   7.213  0.00  0.00    +0.000 OA
ATOM      9  H   UNL     1       7.901   4.367   6.809  0.00  0.00    +0.000 HD
ENDBRANCH   4   8
ENDBRANCH   1   4
BRANCH   1  10
ATOM     10  P   UNL     1      10.814   2.777   4.984  0.00  0.00    +0.000 P 
ATOM     11  O   UNL     1      12.362   2.777   4.984  0.00  0.00    +0.000 OA
BRANCH  10  12
ATOM     12  O   UNL     1      10.739   1.128   5.083  0.00  0.00    +0.000 OA
ATOM     13  H   UNL     1      10.329   0.668   5.849  0.00  0.00    +0.000 HD
ENDBRANCH  10  12
BRANCH  10  14
ATOM     14  O   UNL     1      10.819   2.949   3.342  0.00  0.00    +0.000 OA
ATOM     15  H   UNL     1      10.360   2.348   2.730  0.00  0.00    +0.000 HD
ENDBRANCH  10  14
ENDBRANCH   1  10
BRANCH   1  16
ATOM     16  C   UNL     1       8.327   2.047   3.837  0.00  0.00    +0.000 C 
BRANCH  16  17
ATOM     17  C   UNL     1       6.824   2.020   3.772  0.00  0.00    +0.000 C 
BRANCH  17  18
ATOM     18  N   UNL     1       6.417   1.387   2.505  0.00  0.00    +0.000 NA
ATOM     19  C   UNL     1       6.944   2.067   1.308  0.00  0.00    +0.000 C 
BRANCH  18  20
ATOM     20  C   UNL     1       4.952   1.355   2.494  0.00  0.00    +0.000 C 
BRANCH  20  21
ATOM     21  C   UNL     1       4.418   0.614   1.282  0.00  0.00    +0.000 C 
BRANCH  21  22
ATOM     22  C   UNL     1       2.904   0.615   1.298  0.00  0.00    +0.000 C 
BRANCH  22  24
ATOM     23  C   UNL     1       0.882  -0.081   0.030  0.00  0.00    +0.000 C 
ATOM     24  C   UNL     1       2.394  -0.084   0.048  0.00  0.00    +0.000 C 
ENDBRANCH  22  24
ENDBRANCH  21  22
ENDBRANCH  20  21
ENDBRANCH  18  20
ENDBRANCH  17  18
ENDBRANCH  16  17
ENDBRANCH   1  16
TORSDOF 14
