REMARK  Name = Ibrutinib
REMARK  5 active torsions:
REMARK  status: ('A' for Active; 'I' for Inactive)
REMARK    1  A    between atoms: C_8  and  C_21
REMARK    2  A    between atoms: N_10  and  C_11
REMARK    3  A    between atoms: C_17  and  C_19
REMARK    4  A    between atoms: C_24  and  O_25
REMARK    5  A    between atoms: O_25  and  C_26
REMARK                            x       y       z     vdW  Elec       q    Type
REMARK                         _______ _______ _______ _____ _____    ______ ____
ROOT
ATOM      1  N   UNL     1       0.831   0.012  -0.224  0.00  0.00    +0.000 N 
ATOM      2  C   UNL     1       2.195  -0.059  -0.022  0.00  0.00    +0.000 A 
ATOM      3  N   UNL     1       2.812   1.117   0.164  0.00  0.00    +0.000 NA
ATOM      4  C   UNL     1       4.107   1.087   0.473  0.00  0.00    +0.000 A 
ATOM      5  N   UNL     1       4.893   0.015   0.593  0.00  0.00    +0.000 NA
ATOM      6  C   UNL     1       4.280  -1.140   0.301  0.00  0.00    +0.000 A 
ATOM      7  C   UNL     1       2.941  -1.245   0.019  0.00  0.00    +0.000 A 
ATOM      8  C   UNL     1       2.720  -2.635  -0.078  0.00  0.00    +0.000 A 
ATOM      9  N   UNL     1       3.852  -3.355   0.033  0.00  0.00    +0.000 NA
ATOM     10  N   UNL     1       4.818  -2.407   0.154  0.00  0.00    +0.000 N 
ATOM     11  H   UNL     1       0.459   0.927  -0.009  0.00  0.00    +0.000 HD
ATOM     12  H   UNL     1       0.292  -0.792   0.061  0.00  0.00    +0.000 HD
ENDROOT
BRANCH  10  13
ATOM     13  C   UNL     1       6.211  -2.789  -0.115  0.00  0.00    +0.000 C 
ATOM     14  C   UNL     1       7.213  -2.510   1.021  0.00  0.00    +0.000 C 
ATOM     15  C   UNL     1       7.436  -1.019   1.214  0.00  0.00    +0.000 C 
ATOM     16  C   UNL     1       7.713  -0.282  -0.122  0.00  0.00    +0.000 C 
ATOM     17  N   UNL     1       6.848  -0.671  -1.260  0.00  0.00    +0.000 N 
ATOM     18  C   UNL     1       6.697  -2.127  -1.419  0.00  0.00    +0.000 C 
ATOM     19  C   UNL     1       5.991   0.159  -2.004  0.00  0.00    +0.000 C 
ATOM     20  O   UNL     1       5.167  -0.300  -2.808  0.00  0.00    +0.000 OA
BRANCH  19  21
ATOM     21  C   UNL     1       6.000   1.640  -1.751  0.00  0.00    +0.000 C 
ATOM     22  C   UNL     1       5.027   2.454  -2.202  0.00  0.00    +0.000 C 
ENDBRANCH  19  21
ENDBRANCH  10  13
BRANCH   8  23
ATOM     23  C   UNL     1       1.410  -3.238  -0.152  0.00  0.00    +0.000 A 
ATOM     24  C   UNL     1       0.532  -2.902  -1.191  0.00  0.00    +0.000 A 
ATOM     25  C   UNL     1      -0.797  -3.319  -1.143  0.00  0.00    +0.000 A 
ATOM     26  C   UNL     1      -1.241  -4.105  -0.078  0.00  0.00    +0.000 A 
ATOM     27  C   UNL     1      -0.346  -4.452   0.944  0.00  0.00    +0.000 A 
ATOM     28  C   UNL     1       0.966  -3.999   0.924  0.00  0.00    +0.000 A 
BRANCH  26  29
ATOM     29  O   UNL     1      -2.571  -4.478  -0.122  0.00  0.00    +0.000 OA
BRANCH  29  30
ATOM     30  C   UNL     1      -3.005  -5.356   0.842  0.00  0.00    +0.000 A 
ATOM     31  C   UNL     1      -3.278  -6.670   0.467  0.00  0.00    +0.000 A 
ATOM     32  C   UNL     1      -3.617  -7.603   1.445  0.00  0.00    +0.000 A 
ATOM     33  C   UNL     1      -3.685  -7.218   2.786  0.00  0.00    +0.000 A 
ATOM     34  C   UNL     1      -3.454  -5.891   3.150  0.00  0.00    +0.000 A 
ATOM     35  C   UNL     1      -3.146  -4.948   2.172  0.00  0.00    +0.000 A 
ENDBRANCH  29  30
ENDBRANCH  26  29
ENDBRANCH   8  23
TORSDOF 5
