REMARK  Name = Ibuprofen
REMARK  8 active torsions:
REMARK  status: ('A' for Active; 'I' for Inactive)
REMARK    1  A    between atoms: C_1  and  C_2
REMARK    2  A    between atoms: C_2  and  C_3
REMARK    3  A    between atoms: C_2  and  C_4
REMARK    4  A    between atoms: C_4  and  C_5
REMARK    5  A    between atoms: C_8  and  C_11
REMARK    6  A    between atoms: C_11  and  C_12
REMARK    7  A    between atoms: C_11  and  C_13
REMARK    8  A    between atoms: C_13  and  O_14
REMARK                            x       y       z     vdW  Elec       q    Type
REMARK                         _______ _______ _______ _____ _____    ______ ____
ROOT
ATOM      1  C   UNL     1       4.433   0.844  -1.206  0.00  0.00    +0.000 A 
ATOM      2  C   UNL     1       5.233  -0.280  -1.435  0.00  0.00    +0.000 A 
ATOM      3  C   UNL     1       6.592  -0.254  -1.140  0.00  0.00    +0.000 A 
ATOM      4  C   UNL     1       7.224   0.954  -0.814  0.00  0.00    +0.000 A 
ATOM      5  C   UNL     1       6.390   2.036  -0.533  0.00  0.00    +0.000 A 
ATOM      6  C   UNL     1       5.037   2.025  -0.820  0.00  0.00    +0.000 A 
ENDROOT
BRANCH   4   7
ATOM      7  C   UNL     1       8.746   1.015  -0.827  0.00  0.00    +0.000 C 
ATOM      8  C   UNL     1       9.273   0.385  -2.141  0.00  0.00    +0.000 C 
BRANCH   7   9
ATOM      9  C   UNL     1       9.491   2.342  -0.649  0.00  0.00    +0.000 C 
ATOM     10  O   UNL     1      10.725   2.361  -0.559  0.00  0.00    +0.000 OA
BRANCH   9  11
ATOM     11  O   UNL     1       8.851   3.520  -0.623  0.00  0.00    +0.000 OA
ATOM     12  H   UNL     1       7.971   3.573  -1.030  0.00  0.00    +0.000 HD
ENDBRANCH   9  11
ENDBRANCH   7   9
ENDBRANCH   4   7
BRANCH   1  13
ATOM     13  C   UNL     1       2.932   0.782  -1.156  0.00  0.00    +0.000 C 
BRANCH  13  15
ATOM     14  C   UNL     1       0.899  -0.081   0.009  0.00  0.00    +0.000 C 
ATOM     15  C   UNL     1       2.421  -0.136  -0.023  0.00  0.00    +0.000 C 
ATOM     16  C   UNL     1       2.846  -1.595  -0.193  0.00  0.00    +0.000 C 
ENDBRANCH  13  15
ENDBRANCH   1  13
TORSDOF 5
