REMARK  Name = Ibutilide
REMARK  18 active torsions:
REMARK  status: ('A' for Active; 'I' for Inactive)
REMARK    1  A    between atoms: C_1  and  C_2
REMARK    2  A    between atoms: C_2  and  C_3
REMARK    3  A    between atoms: C_3  and  C_4
REMARK    4  A    between atoms: C_4  and  C_5
REMARK    5  A    between atoms: C_5  and  C_6
REMARK    6  A    between atoms: C_6  and  C_7
REMARK    7  A    between atoms: C_7  and  N_8
REMARK    8  A    between atoms: N_8  and  C_9
REMARK    9  A    between atoms: N_8  and  C_11
REMARK   10  A    between atoms: C_9  and  C_10
REMARK   11  A    between atoms: C_11  and  C_12
REMARK   12  A    between atoms: C_12  and  C_13
REMARK   13  A    between atoms: C_13  and  C_14
REMARK   14  A    between atoms: C_14  and  O_15
REMARK   15  A    between atoms: C_14  and  C_16
REMARK   16  A    between atoms: C_19  and  N_20
REMARK   17  A    between atoms: N_20  and  S_21
REMARK   18  A    between atoms: S_21  and  C_22
REMARK                            x       y       z     vdW  Elec       q    Type
REMARK                         _______ _______ _______ _____ _____    ______ ____
ROOT
ATOM      1  C   UNL     1      12.558  -5.666  -4.247  0.00  0.00    +0.000 C 
ENDROOT
BRANCH   1   2
ATOM      2  C   UNL     1      13.036  -6.824  -5.077  0.00  0.00    +0.000 A 
ATOM      3  C   UNL     1      12.515  -8.116  -4.904  0.00  0.00    +0.000 A 
ATOM      4  C   UNL     1      12.981  -9.185  -5.667  0.00  0.00    +0.000 A 
ATOM      5  C   UNL     1      13.938  -8.965  -6.656  0.00  0.00    +0.000 A 
ATOM      6  C   UNL     1      14.485  -7.689  -6.791  0.00  0.00    +0.000 A 
ATOM      7  C   UNL     1      14.035  -6.622  -6.024  0.00  0.00    +0.000 A 
BRANCH   5   8
ATOM      8  N   UNL     1      14.197 -10.011  -7.586  0.00  0.00    +0.000 N 
ATOM      9  H   UNL     1      13.805 -10.939  -7.426  0.00  0.00    +0.000 HD
BRANCH   8  10
ATOM     10  S   UNL     1      15.332  -9.926  -8.807  0.00  0.00    +0.000 S 
ATOM     11  C   UNL     1      14.661  -8.694  -9.925  0.00  0.00    +0.000 C 
ATOM     12  O   UNL     1      16.582  -9.430  -8.259  0.00  0.00    +0.000 OA
ATOM     13  O   UNL     1      15.279 -11.199  -9.484  0.00  0.00    +0.000 OA
ENDBRANCH   8  10
ENDBRANCH   5   8
ENDBRANCH   1   2
BRANCH   1  14
ATOM     14  O   UNL     1      13.059  -5.817  -2.921  0.00  0.00    +0.000 OA
ATOM     15  H   UNL     1      12.765  -6.679  -2.587  0.00  0.00    +0.000 HD
ENDBRANCH   1  14
BRANCH   1  16
ATOM     16  C   UNL     1      11.032  -5.611  -4.253  0.00  0.00    +0.000 C 
BRANCH  16  17
ATOM     17  C   UNL     1      10.543  -4.477  -3.384  0.00  0.00    +0.000 C 
BRANCH  17  18
ATOM     18  C   UNL     1       9.021  -4.474  -3.319  0.00  0.00    +0.000 C 
BRANCH  18  19
ATOM     19  N   UNL     1       8.509  -3.399  -2.444  0.00  0.00    +0.000 NA
BRANCH  19  20
ATOM     20  C   UNL     1       9.023  -3.576  -1.063  0.00  0.00    +0.000 C 
ATOM     21  C   UNL     1       8.783  -2.453  -0.061  0.00  0.00    +0.000 C 
ENDBRANCH  19  20
BRANCH  19  22
ATOM     22  C   UNL     1       7.035  -3.419  -2.543  0.00  0.00    +0.000 C 
BRANCH  22  23
ATOM     23  C   UNL     1       6.401  -2.259  -1.810  0.00  0.00    +0.000 C 
BRANCH  23  24
ATOM     24  C   UNL     1       4.900  -2.252  -1.790  0.00  0.00    +0.000 C 
BRANCH  24  25
ATOM     25  C   UNL     1       4.469  -1.135  -0.841  0.00  0.00    +0.000 C 
BRANCH  25  26
ATOM     26  C   UNL     1       2.962  -1.115  -0.776  0.00  0.00    +0.000 C 
BRANCH  26  28
ATOM     27  C   UNL     1       0.957   0.023   0.115  0.00  0.00    +0.000 C 
ATOM     28  C   UNL     1       2.471   0.017   0.107  0.00  0.00    +0.000 C 
ENDBRANCH  26  28
ENDBRANCH  25  26
ENDBRANCH  24  25
ENDBRANCH  23  24
ENDBRANCH  22  23
ENDBRANCH  19  22
ENDBRANCH  18  19
ENDBRANCH  17  18
ENDBRANCH  16  17
ENDBRANCH   1  16
TORSDOF 15
