REMARK  Name = Icosapent ethyl
REMARK  17 active torsions:
REMARK  status: ('A' for Active; 'I' for Inactive)
REMARK    1  A    between atoms: C_1  and  C_2
REMARK    2  A    between atoms: C_2  and  O_3
REMARK    3  A    between atoms: O_3  and  C_4
REMARK    4  A    between atoms: C_4  and  C_6
REMARK    5  A    between atoms: C_6  and  C_7
REMARK    6  A    between atoms: C_7  and  C_8
REMARK    7  A    between atoms: C_8  and  C_9
REMARK    8  A    between atoms: C_10  and  C_11
REMARK    9  A    between atoms: C_11  and  C_12
REMARK   10  A    between atoms: C_13  and  C_14
REMARK   11  A    between atoms: C_14  and  C_15
REMARK   12  A    between atoms: C_16  and  C_17
REMARK   13  A    between atoms: C_17  and  C_18
REMARK   14  A    between atoms: C_19  and  C_20
REMARK   15  A    between atoms: C_20  and  C_21
REMARK   16  A    between atoms: C_22  and  C_23
REMARK   17  A    between atoms: C_23  and  C_24
REMARK                            x       y       z     vdW  Elec       q    Type
REMARK                         _______ _______ _______ _____ _____    ______ ____
ROOT
ATOM      1  C   UNL     1       9.441  -3.543  -7.253  0.00  0.00    +0.000 C 
ATOM      2  C   UNL     1       8.994  -4.102  -8.390  0.00  0.00    +0.000 C 
ENDROOT
BRANCH   1   3
ATOM      3  C   UNL     1       8.503  -3.027  -6.204  0.00  0.00    +0.000 C 
BRANCH   3   5
ATOM      4  C   UNL     1       8.500  -1.934  -3.978  0.00  0.00    +0.000 C 
ATOM      5  C   UNL     1       9.191  -2.442  -5.012  0.00  0.00    +0.000 C 
BRANCH   4   6
ATOM      6  C   UNL     1       6.994  -1.914  -3.939  0.00  0.00    +0.000 C 
BRANCH   6   7
ATOM      7  C   UNL     1       6.468  -1.285  -2.658  0.00  0.00    +0.000 C 
BRANCH   7   8
ATOM      8  C   UNL     1       4.936  -1.260  -2.608  0.00  0.00    +0.000 C 
BRANCH   8   9
ATOM      9  C   UNL     1       4.476  -0.624  -1.313  0.00  0.00    +0.000 C 
ATOM     10  O   UNL     1       5.234  -0.198  -0.446  0.00  0.00    +0.000 OA
BRANCH   9  11
ATOM     11  O   UNL     1       3.115  -0.583  -1.229  0.00  0.00    +0.000 OA
BRANCH  11  13
ATOM     12  C   UNL     1       1.123   0.026   0.010  0.00  0.00    +0.000 C 
ATOM     13  C   UNL     1       2.641   0.016  -0.009  0.00  0.00    +0.000 C 
ENDBRANCH  11  13
ENDBRANCH   9  11
ENDBRANCH   8   9
ENDBRANCH   7   8
ENDBRANCH   6   7
ENDBRANCH   4   6
ENDBRANCH   3   5
ENDBRANCH   1   3
BRANCH   2  14
ATOM     14  C   UNL     1       7.532  -4.246  -8.684  0.00  0.00    +0.000 C 
BRANCH  14  15
ATOM     15  C   UNL     1       7.245  -4.894 -10.004  0.00  0.00    +0.000 C 
ATOM     16  C   UNL     1       5.992  -5.107 -10.437  0.00  0.00    +0.000 C 
BRANCH  16  17
ATOM     17  C   UNL     1       4.793  -4.711  -9.630  0.00  0.00    +0.000 C 
BRANCH  17  18
ATOM     18  C   UNL     1       3.489  -5.036 -10.293  0.00  0.00    +0.000 C 
ATOM     19  C   UNL     1       2.308  -4.754  -9.718  0.00  0.00    +0.000 C 
BRANCH  19  20
ATOM     20  C   UNL     1       2.219  -4.094  -8.376  0.00  0.00    +0.000 C 
BRANCH  20  21
ATOM     21  C   UNL     1       0.816  -3.865  -7.909  0.00  0.00    +0.000 C 
ATOM     22  C   UNL     1       0.551  -3.284  -6.727  0.00  0.00    +0.000 C 
BRANCH  22  23
ATOM     23  C   UNL     1       1.631  -2.823  -5.788  0.00  0.00    +0.000 C 
ATOM     24  C   UNL     1       1.061  -2.204  -4.529  0.00  0.00    +0.000 C 
ENDBRANCH  22  23
ENDBRANCH  20  21
ENDBRANCH  19  20
ENDBRANCH  17  18
ENDBRANCH  16  17
ENDBRANCH  14  15
ENDBRANCH   2  14
TORSDOF 15
