REMARK  Name = Icosapent
REMARK  15 active torsions:
REMARK  status: ('A' for Active; 'I' for Inactive)
REMARK    1  A    between atoms: C_1  and  C_2
REMARK    2  A    between atoms: C_2  and  C_3
REMARK    3  A    between atoms: C_4  and  C_5
REMARK    4  A    between atoms: C_5  and  C_6
REMARK    5  A    between atoms: C_7  and  C_8
REMARK    6  A    between atoms: C_8  and  C_9
REMARK    7  A    between atoms: C_10  and  C_11
REMARK    8  A    between atoms: C_11  and  C_12
REMARK    9  A    between atoms: C_13  and  C_14
REMARK   10  A    between atoms: C_14  and  C_15
REMARK   11  A    between atoms: C_16  and  C_17
REMARK   12  A    between atoms: C_17  and  C_18
REMARK   13  A    between atoms: C_18  and  C_19
REMARK   14  A    between atoms: C_19  and  C_20
REMARK   15  A    between atoms: C_20  and  O_21
REMARK                            x       y       z     vdW  Elec       q    Type
REMARK                         _______ _______ _______ _____ _____    ______ ____
ROOT
ATOM      1  C   UNL     1       8.066   4.539   3.432  0.00  0.00    +0.000 C 
ATOM      2  C   UNL     1       7.070   5.264   3.967  0.00  0.00    +0.000 C 
ENDROOT
BRANCH   1   3
ATOM      3  C   UNL     1       7.803   3.352   2.556  0.00  0.00    +0.000 C 
BRANCH   3   5
ATOM      4  C   UNL     1       9.012   1.604   1.266  0.00  0.00    +0.000 C 
ATOM      5  C   UNL     1       9.050   2.684   2.063  0.00  0.00    +0.000 C 
BRANCH   4   6
ATOM      6  C   UNL     1       7.721   0.992   0.814  0.00  0.00    +0.000 C 
BRANCH   6   8
ATOM      7  C   UNL     1       6.855  -0.883  -0.570  0.00  0.00    +0.000 C 
ATOM      8  C   UNL     1       7.901  -0.204  -0.069  0.00  0.00    +0.000 C 
BRANCH   7   9
ATOM      9  C   UNL     1       5.440  -0.486  -0.277  0.00  0.00    +0.000 C 
BRANCH   9  11
ATOM     10  C   UNL     1       3.103  -1.156  -0.772  0.00  0.00    +0.000 C 
ATOM     11  C   UNL     1       4.420  -1.367  -0.927  0.00  0.00    +0.000 C 
BRANCH  10  13
ATOM     12  C   UNL     1       1.038  -0.018   0.068  0.00  0.00    +0.000 C 
ATOM     13  C   UNL     1       2.553  -0.030   0.060  0.00  0.00    +0.000 C 
ENDBRANCH  10  13
ENDBRANCH   9  11
ENDBRANCH   7   9
ENDBRANCH   6   8
ENDBRANCH   4   6
ENDBRANCH   3   5
ENDBRANCH   1   3
BRANCH   2  14
ATOM     14  C   UNL     1       5.632   4.931   3.722  0.00  0.00    +0.000 C 
BRANCH  14  15
ATOM     15  C   UNL     1       4.677   5.857   4.406  0.00  0.00    +0.000 C 
ATOM     16  C   UNL     1       3.350   5.705   4.293  0.00  0.00    +0.000 C 
BRANCH  16  17
ATOM     17  C   UNL     1       2.735   4.601   3.479  0.00  0.00    +0.000 C 
BRANCH  17  18
ATOM     18  C   UNL     1       1.221   4.675   3.533  0.00  0.00    +0.000 C 
BRANCH  18  19
ATOM     19  C   UNL     1       0.578   3.566   2.714  0.00  0.00    +0.000 C 
BRANCH  19  20
ATOM     20  C   UNL     1      -0.932   3.568   2.716  0.00  0.00    +0.000 C 
ATOM     21  O   UNL     1      -1.578   2.729   2.096  0.00  0.00    +0.000 OA
BRANCH  20  22
ATOM     22  O   UNL     1      -1.550   4.531   3.426  0.00  0.00    +0.000 OA
ATOM     23  H   UNL     1      -0.994   5.174   3.901  0.00  0.00    +0.000 HD
ENDBRANCH  20  22
ENDBRANCH  19  20
ENDBRANCH  18  19
ENDBRANCH  17  18
ENDBRANCH  16  17
ENDBRANCH  14  15
ENDBRANCH   2  14
TORSDOF 14
