REMARK  Name = Idarubicin
REMARK  10 active torsions:
REMARK  status: ('A' for Active; 'I' for Inactive)
REMARK    1  A    between atoms: C_1  and  C_2
REMARK    2  A    between atoms: C_4  and  O_10
REMARK    3  A    between atoms: C_6  and  N_7
REMARK    4  A    between atoms: C_8  and  O_9
REMARK    5  A    between atoms: O_10  and  C_11
REMARK    6  A    between atoms: C_13  and  O_14
REMARK    7  A    between atoms: C_13  and  C_34
REMARK    8  A    between atoms: C_18  and  O_19
REMARK    9  A    between atoms: C_32  and  O_33
REMARK   10  A    between atoms: C_34  and  C_35
REMARK                            x       y       z     vdW  Elec       q    Type
REMARK                         _______ _______ _______ _____ _____    ______ ____
ROOT
ATOM      1  C   UNL     1       2.663   2.851  -3.129  0.00  0.00    +0.000 C 
ATOM      2  C   UNL     1       3.216   3.100  -1.736  0.00  0.00    +0.000 C 
ATOM      3  C   UNL     1       2.871   4.521  -1.277  0.00  0.00    +0.000 C 
ATOM      4  C   UNL     1       1.360   4.591  -1.069  0.00  0.00    +0.000 C 
ATOM      5  C   UNL     1       0.585   4.037  -2.258  0.00  0.00    +0.000 A 
ATOM      6  C   UNL     1       1.182   3.160  -3.199  0.00  0.00    +0.000 A 
ATOM      7  C   UNL     1       0.430   2.717  -4.302  0.00  0.00    +0.000 A 
ATOM      8  C   UNL     1      -0.906   3.109  -4.463  0.00  0.00    +0.000 A 
ATOM      9  C   UNL     1      -1.690   2.648  -5.638  0.00  0.00    +0.000 C 
ATOM     10  O   UNL     1      -1.226   1.938  -6.516  0.00  0.00    +0.000 OA
ATOM     11  C   UNL     1      -3.097   3.055  -5.761  0.00  0.00    +0.000 A 
ATOM     12  C   UNL     1      -3.839   2.597  -6.856  0.00  0.00    +0.000 A 
ATOM     13  C   UNL     1      -5.176   2.960  -6.989  0.00  0.00    +0.000 A 
ATOM     14  C   UNL     1      -5.772   3.780  -6.031  0.00  0.00    +0.000 A 
ATOM     15  C   UNL     1      -5.032   4.238  -4.940  0.00  0.00    +0.000 A 
ATOM     16  C   UNL     1      -3.690   3.873  -4.808  0.00  0.00    +0.000 A 
ATOM     17  C   UNL     1      -2.911   4.352  -3.656  0.00  0.00    +0.000 C 
ATOM     18  O   UNL     1      -3.427   5.079  -2.814  0.00  0.00    +0.000 OA
ATOM     19  C   UNL     1      -1.499   3.947  -3.512  0.00  0.00    +0.000 A 
ATOM     20  C   UNL     1      -0.756   4.402  -2.414  0.00  0.00    +0.000 A 
ENDROOT
BRANCH   3  21
ATOM     21  C   UNL     1       3.606   4.806   0.035  0.00  0.00    +0.000 C 
ATOM     22  C   UNL     1       4.302   6.138   0.163  0.00  0.00    +0.000 C 
ATOM     23  O   UNL     1       3.623   3.990   0.960  0.00  0.00    +0.000 OA
ENDBRANCH   3  21
BRANCH   3  24
ATOM     24  O   UNL     1       3.232   5.534  -2.223  0.00  0.00    +0.000 OA
ATOM     25  H   UNL     1       2.927   5.244  -3.107  0.00  0.00    +0.000 HD
ENDBRANCH   3  24
BRANCH   7  26
ATOM     26  O   UNL     1       0.997   1.909  -5.251  0.00  0.00    +0.000 OA
ATOM     27  H   UNL     1       1.959   1.858  -5.179  0.00  0.00    +0.000 HD
ENDBRANCH   7  26
BRANCH  20  28
ATOM     28  O   UNL     1      -1.285   5.227  -1.452  0.00  0.00    +0.000 OA
ATOM     29  H   UNL     1      -2.226   5.415  -1.670  0.00  0.00    +0.000 HD
ENDBRANCH  20  28
BRANCH   1  30
ATOM     30  O   UNL     1       3.159   3.753  -4.120  0.00  0.00    +0.000 OA
BRANCH  30  34
ATOM     31  C   UNL     1       7.337   2.669  -3.732  0.00  0.00    +0.000 C 
ATOM     32  C   UNL     1       6.751   4.082  -3.629  0.00  0.00    +0.000 C 
ATOM     33  O   UNL     1       5.349   4.031  -3.370  0.00  0.00    +0.000 OA
ATOM     34  C   UNL     1       4.531   3.632  -4.461  0.00  0.00    +0.000 C 
ATOM     35  C   UNL     1       4.745   4.549  -5.669  0.00  0.00    +0.000 C 
ATOM     36  C   UNL     1       6.218   4.606  -6.061  0.00  0.00    +0.000 C 
ATOM     37  C   UNL     1       7.035   5.017  -4.817  0.00  0.00    +0.000 C 
BRANCH  36  38
ATOM     38  N   UNL     1       6.613   3.314  -6.647  0.00  0.00    +0.000 NA
ATOM     39  H   UNL     1       6.186   2.537  -6.153  0.00  0.00    +0.000 HD
ATOM     40  H   UNL     1       7.616   3.172  -6.588  0.00  0.00    +0.000 HD
ENDBRANCH  36  38
BRANCH  37  41
ATOM     41  O   UNL     1       8.424   5.117  -5.111  0.00  0.00    +0.000 OA
ATOM     42  H   UNL     1       8.730   4.264  -5.453  0.00  0.00    +0.000 HD
ENDBRANCH  37  41
ENDBRANCH  30  34
ENDBRANCH   1  30
TORSDOF 8
