REMARK  Name = Idebenone
REMARK  16 active torsions:
REMARK  status: ('A' for Active; 'I' for Inactive)
REMARK    1  A    between atoms: C_1  and  O_2
REMARK    2  A    between atoms: O_2  and  C_3
REMARK    3  A    between atoms: C_4  and  O_5
REMARK    4  A    between atoms: O_5  and  C_6
REMARK    5  A    between atoms: C_9  and  C_10
REMARK    6  A    between atoms: C_10  and  C_11
REMARK    7  A    between atoms: C_11  and  C_12
REMARK    8  A    between atoms: C_12  and  C_13
REMARK    9  A    between atoms: C_13  and  C_14
REMARK   10  A    between atoms: C_14  and  C_15
REMARK   11  A    between atoms: C_15  and  C_16
REMARK   12  A    between atoms: C_16  and  C_17
REMARK   13  A    between atoms: C_17  and  C_18
REMARK   14  A    between atoms: C_18  and  C_19
REMARK   15  A    between atoms: C_19  and  O_20
REMARK   16  A    between atoms: C_21  and  C_22
REMARK                            x       y       z     vdW  Elec       q    Type
REMARK                         _______ _______ _______ _____ _____    ______ ____
ROOT
ATOM      1  C   UNL     1       3.071  -0.922  -0.760  0.00  0.00    +0.000 C 
ATOM      2  C   UNL     1       2.777  -1.255  -2.029  0.00  0.00    +0.000 C 
ATOM      3  C   UNL     1       3.545  -2.341  -2.688  0.00  0.00    +0.000 C 
ATOM      4  O   UNL     1       3.330  -2.581  -3.866  0.00  0.00    +0.000 OA
ATOM      5  C   UNL     1       4.560  -3.119  -1.912  0.00  0.00    +0.000 C 
ATOM      6  C   UNL     1       4.860  -2.766  -0.652  0.00  0.00    +0.000 C 
ATOM      7  C   UNL     1       5.879  -3.477   0.204  0.00  0.00    +0.000 C 
ATOM      8  C   UNL     1       4.177  -1.608  -0.014  0.00  0.00    +0.000 C 
ATOM      9  O   UNL     1       4.508  -1.250   1.112  0.00  0.00    +0.000 OA
ENDROOT
BRANCH   1  11
ATOM     10  C   UNL     1       1.023   0.054  -0.059  0.00  0.00    +0.000 C 
ATOM     11  O   UNL     1       2.447   0.110  -0.071  0.00  0.00    +0.000 OA
ENDBRANCH   1  11
BRANCH   2  12
ATOM     12  O   UNL     1       1.802  -0.540  -2.726  0.00  0.00    +0.000 OA
ATOM     13  C   UNL     1       1.418  -0.945  -4.039  0.00  0.00    +0.000 C 
ENDBRANCH   2  12
BRANCH   5  14
ATOM     14  C   UNL     1       5.256  -4.293  -2.569  0.00  0.00    +0.000 C 
BRANCH  14  15
ATOM     15  C   UNL     1       4.830  -4.587  -3.990  0.00  0.00    +0.000 C 
BRANCH  15  16
ATOM     16  C   UNL     1       5.542  -5.760  -4.595  0.00  0.00    +0.000 C 
BRANCH  16  17
ATOM     17  C   UNL     1       5.015  -5.926  -6.010  0.00  0.00    +0.000 C 
BRANCH  17  18
ATOM     18  C   UNL     1       5.712  -7.097  -6.656  0.00  0.00    +0.000 C 
BRANCH  18  19
ATOM     19  C   UNL     1       5.202  -7.287  -8.069  0.00  0.00    +0.000 C 
BRANCH  19  20
ATOM     20  C   UNL     1       5.912  -8.468  -8.704  0.00  0.00    +0.000 C 
BRANCH  20  21
ATOM     21  C   UNL     1       5.412  -8.672 -10.123  0.00  0.00    +0.000 C 
BRANCH  21  22
ATOM     22  C   UNL     1       6.119  -9.853 -10.766  0.00  0.00    +0.000 C 
BRANCH  22  23
ATOM     23  C   UNL     1       5.622 -10.058 -12.186  0.00  0.00    +0.000 C 
BRANCH  23  24
ATOM     24  O   UNL     1       6.284 -11.169 -12.770  0.00  0.00    +0.000 OA
ATOM     25  H   UNL     1       7.236 -10.974 -12.765  0.00  0.00    +0.000 HD
ENDBRANCH  23  24
ENDBRANCH  22  23
ENDBRANCH  21  22
ENDBRANCH  20  21
ENDBRANCH  19  20
ENDBRANCH  18  19
ENDBRANCH  17  18
ENDBRANCH  16  17
ENDBRANCH  15  16
ENDBRANCH  14  15
ENDBRANCH   5  14
TORSDOF 13
