REMARK  Name = Idelalisib
REMARK  5 active torsions:
REMARK  status: ('A' for Active; 'I' for Inactive)
REMARK    1  A    between atoms: C_2  and  C_3
REMARK    2  A    between atoms: C_2  and  N_5
REMARK    3  A    between atoms: C_2  and  C_15
REMARK    4  A    between atoms: C_3  and  C_4
REMARK    5  A    between atoms: N_26  and  C_27
REMARK                            x       y       z     vdW  Elec       q    Type
REMARK                         _______ _______ _______ _____ _____    ______ ____
ROOT
ATOM      1  C   UNL     1       2.508  -0.625   1.366  0.00  0.00    +0.000 A 
ATOM      2  N   UNL     1       2.168  -1.867   1.577  0.00  0.00    +0.000 NA
ATOM      3  C   UNL     1       2.596  -2.532   2.723  0.00  0.00    +0.000 A 
ATOM      4  C   UNL     1       2.435  -3.920   2.820  0.00  0.00    +0.000 A 
ATOM      5  C   UNL     1       2.997  -4.618   3.892  0.00  0.00    +0.000 A 
ATOM      6  C   UNL     1       3.509  -3.912   4.976  0.00  0.00    +0.000 A 
ATOM      7  C   UNL     1       3.595  -2.531   4.913  0.00  0.00    +0.000 A 
ATOM      8  F   UNL     1       4.034  -1.869   5.991  0.00  0.00    +0.000 F 
ATOM      9  C   UNL     1       3.238  -1.863   3.751  0.00  0.00    +0.000 A 
ATOM     10  C   UNL     1       3.569  -0.461   3.553  0.00  0.00    +0.000 A 
ATOM     11  O   UNL     1       4.175   0.143   4.449  0.00  0.00    +0.000 OA
ATOM     12  N   UNL     1       3.191   0.108   2.340  0.00  0.00    +0.000 N 
ENDROOT
BRANCH  12  13
ATOM     13  C   UNL     1       3.513   1.484   2.217  0.00  0.00    +0.000 A 
ATOM     14  C   UNL     1       4.862   1.847   2.080  0.00  0.00    +0.000 A 
ATOM     15  C   UNL     1       5.173   3.090   1.541  0.00  0.00    +0.000 A 
ATOM     16  C   UNL     1       4.169   4.044   1.370  0.00  0.00    +0.000 A 
ATOM     17  C   UNL     1       2.838   3.729   1.649  0.00  0.00    +0.000 A 
ATOM     18  C   UNL     1       2.502   2.434   2.036  0.00  0.00    +0.000 A 
ENDBRANCH  12  13
BRANCH   1  19
ATOM     19  C   UNL     1       2.104  -0.053  -0.059  0.00  0.00    +0.000 C 
BRANCH  19  20
ATOM     20  N   UNL     1       2.651   1.257  -0.338  0.00  0.00    +0.000 N 
ATOM     21  C   UNL     1       2.211   2.112  -1.316  0.00  0.00    +0.000 A 
ATOM     22  N   UNL     1       0.924   2.109  -1.727  0.00  0.00    +0.000 NA
ATOM     23  C   UNL     1       0.557   3.005  -2.669  0.00  0.00    +0.000 A 
ATOM     24  N   UNL     1       1.318   3.922  -3.307  0.00  0.00    +0.000 NA
ATOM     25  C   UNL     1       2.582   3.874  -2.865  0.00  0.00    +0.000 A 
ATOM     26  C   UNL     1       3.099   3.042  -1.894  0.00  0.00    +0.000 A 
ATOM     27  N   UNL     1       4.450   3.287  -1.710  0.00  0.00    +0.000 NA
ATOM     28  C   UNL     1       4.739   4.241  -2.568  0.00  0.00    +0.000 A 
ATOM     29  N   UNL     1       3.643   4.616  -3.296  0.00  0.00    +0.000 N 
ATOM     30  H   UNL     1       3.624   1.428  -0.107  0.00  0.00    +0.000 HD
ATOM     31  H   UNL     1       3.614   5.294  -4.042  0.00  0.00    +0.000 HD
ENDBRANCH  19  20
BRANCH  19  32
ATOM     32  C   UNL     1       2.619  -0.945  -1.212  0.00  0.00    +0.000 C 
ATOM     33  C   UNL     1       2.110  -2.372  -1.222  0.00  0.00    +0.000 C 
ENDBRANCH  19  32
ENDBRANCH   1  19
TORSDOF 4
