REMARK  Name = Idoxuridine
REMARK  4 active torsions:
REMARK  status: ('A' for Active; 'I' for Inactive)
REMARK    1  A    between atoms: O5*_1  and  C5*_2
REMARK    2  A    between atoms: C5*_2  and  C4*_3
REMARK    3  A    between atoms: C1*_5  and  N_9
REMARK    4  A    between atoms: C3*_7  and  O3*_8
REMARK                            x       y       z     vdW  Elec       q    Type
REMARK                         _______ _______ _______ _____ _____    ______ ____
ROOT
ATOM      1  C4* UNL     1       2.897  -1.321   0.765  0.00  0.00    +0.000 C 
ATOM      2  O4* UNL     1       2.511  -1.306   2.160  0.00  0.00    +0.000 OA
ATOM      3  C1* UNL     1       1.823  -2.533   2.471  0.00  0.00    +0.000 C 
ATOM      4  C2* UNL     1       1.384  -3.150   1.151  0.00  0.00    +0.000 C 
ATOM      5  C3* UNL     1       2.442  -2.662   0.191  0.00  0.00    +0.000 C 
ENDROOT
BRANCH   3   6
ATOM      6  N   UNL     1       0.722  -2.262   3.394  0.00  0.00    +0.000 N 
ATOM      7  C   UNL     1      -0.254  -1.341   3.051  0.00  0.00    +0.000 A 
ATOM      8  C   UNL     1      -1.195  -0.920   3.905  0.00  0.00    +0.000 A 
ATOM      9  I   UNL     1      -2.509   0.570   3.436  0.00  0.00    +0.000 I 
ATOM     10  C   UNL     1      -1.232  -1.558   5.246  0.00  0.00    +0.000 A 
ATOM     11  O   UNL     1      -1.985  -1.194   6.148  0.00  0.00    +0.000 OA
ATOM     12  N   UNL     1      -0.365  -2.600   5.430  0.00  0.00    +0.000 N 
ATOM     13  C   UNL     1       0.714  -2.891   4.632  0.00  0.00    +0.000 A 
ATOM     14  O   UNL     1       1.583  -3.660   5.032  0.00  0.00    +0.000 OA
ATOM     15  H   UNL     1      -0.383  -3.041   6.336  0.00  0.00    +0.000 HD
ENDBRANCH   3   6
BRANCH   5  16
ATOM     16  O3* UNL     1       3.529  -3.595   0.180  0.00  0.00    +0.000 OA
ATOM     17  H3* UNL     1       3.948  -3.606   1.059  0.00  0.00    +0.000 HD
ENDBRANCH   5  16
BRANCH   1  18
ATOM     18  C5* UNL     1       2.316  -0.094   0.050  0.00  0.00    +0.000 C 
BRANCH  18  19
ATOM     19  O5* UNL     1       0.892  -0.110   0.016  0.00  0.00    +0.000 OA
ATOM     20  H5* UNL     1       0.618   0.723  -0.410  0.00  0.00    +0.000 HD
ENDBRANCH  18  19
ENDBRANCH   1  18
TORSDOF 4
