REMARK  Name = Ifosfamide
REMARK  5 active torsions:
REMARK  status: ('A' for Active; 'I' for Inactive)
REMARK    1  A    between atoms: C_2  and  C_3
REMARK    2  A    between atoms: C_3  and  N_4
REMARK    3  A    between atoms: N_4  and  P_5
REMARK    4  A    between atoms: N_11  and  C_12
REMARK    5  A    between atoms: C_12  and  C_13
REMARK                            x       y       z     vdW  Elec       q    Type
REMARK                         _______ _______ _______ _____ _____    ______ ____
ROOT
ATOM      1  P   UNL     1       5.017  -2.840  -1.156  0.00  0.00    +0.000 P 
ATOM      2  O   UNL     1       4.178  -3.608  -0.199  0.00  0.00    +0.000 OA
ATOM      3  O   UNL     1       5.397  -3.771  -2.417  0.00  0.00    +0.000 OA
ATOM      4  C   UNL     1       6.054  -4.987  -2.027  0.00  0.00    +0.000 C 
ATOM      5  C   UNL     1       7.078  -4.764  -0.901  0.00  0.00    +0.000 C 
ATOM      6  C   UNL     1       7.590  -3.326  -0.930  0.00  0.00    +0.000 C 
ATOM      7  N   UNL     1       6.503  -2.402  -0.535  0.00  0.00    +0.000 NA
ENDROOT
BRANCH   1   8
ATOM      8  N   UNL     1       4.445  -1.351  -1.578  0.00  0.00    +0.000 NA
ATOM      9  H   UNL     1       5.082  -0.661  -1.195  0.00  0.00    +0.000 HD
BRANCH   8  10
ATOM     10  C   UNL     1       3.058  -1.067  -1.157  0.00  0.00    +0.000 C 
BRANCH  10  12
ATOM     11 CL   UNL     1       0.960   0.194   0.015  0.00  0.00    +0.000 Cl
ATOM     12  C   UNL     1       2.737   0.088  -0.182  0.00  0.00    +0.000 C 
ENDBRANCH  10  12
ENDBRANCH   8  10
ENDBRANCH   1   8
BRANCH   7  13
ATOM     13  C   UNL     1       6.421  -2.268   0.941  0.00  0.00    +0.000 C 
BRANCH  13  14
ATOM     14  C   UNL     1       5.374  -1.233   1.373  0.00  0.00    +0.000 C 
ATOM     15 CL   UNL     1       5.090  -1.190   3.117  0.00  0.00    +0.000 Cl
ENDBRANCH  13  14
ENDBRANCH   7  13
TORSDOF 5
