REMARK  Name = Iloperidone
REMARK  10 active torsions:
REMARK  status: ('A' for Active; 'I' for Inactive)
REMARK    1  A    between atoms: C_1  and  O_2
REMARK    2  A    between atoms: O_2  and  C_3
REMARK    3  A    between atoms: C_4  and  O_5
REMARK    4  A    between atoms: O_5  and  C_6
REMARK    5  A    between atoms: C_6  and  C_7
REMARK    6  A    between atoms: C_7  and  C_8
REMARK    7  A    between atoms: C_8  and  N_9
REMARK    8  A    between atoms: C_12  and  C_15
REMARK    9  A    between atoms: C_27  and  C_29
REMARK   10  A    between atoms: C_29  and  C_30
REMARK                            x       y       z     vdW  Elec       q    Type
REMARK                         _______ _______ _______ _____ _____    ______ ____
ROOT
ATOM      1  N   UNL     1       3.847   5.545   2.205  0.00  0.00    +0.000 NA
ATOM      2  C   UNL     1       5.277   5.734   1.943  0.00  0.00    +0.000 C 
ATOM      3  C   UNL     1       5.828   7.130   2.410  0.00  0.00    +0.000 C 
ATOM      4  C   UNL     1       5.271   8.402   1.633  0.00  0.00    +0.000 C 
ATOM      5  C   UNL     1       3.687   8.096   1.791  0.00  0.00    +0.000 C 
ATOM      6  C   UNL     1       3.117   6.642   1.518  0.00  0.00    +0.000 C 
ENDROOT
BRANCH   4   7
ATOM      7  C   UNL     1       5.968   8.585   0.041  0.00  0.00    +0.000 A 
ATOM      8  N   UNL     1       5.840   7.303  -0.343  0.00  0.00    +0.000 NA
ATOM      9  O   UNL     1       6.902   6.926  -1.051  0.00  0.00    +0.000 OA
ATOM     10  C   UNL     1       7.864   7.821  -0.912  0.00  0.00    +0.000 A 
ATOM     11  C   UNL     1       7.354   9.089  -0.697  0.00  0.00    +0.000 A 
ATOM     12  C   UNL     1       8.171   9.939  -1.620  0.00  0.00    +0.000 A 
ATOM     13  C   UNL     1       9.568   9.536  -1.894  0.00  0.00    +0.000 A 
ATOM     14  C   UNL     1      10.073   8.391  -1.283  0.00  0.00    +0.000 A 
ATOM     15  F   UNL     1      11.356   8.021  -1.345  0.00  0.00    +0.000 F 
ATOM     16  C   UNL     1       9.176   7.512  -0.757  0.00  0.00    +0.000 A 
ENDBRANCH   4   7
BRANCH   1  17
ATOM     17  C   UNL     1       3.352   4.184   1.785  0.00  0.00    +0.000 C 
BRANCH  17  18
ATOM     18  C   UNL     1       4.244   2.952   2.132  0.00  0.00    +0.000 C 
BRANCH  18  19
ATOM     19  C   UNL     1       3.714   1.647   1.515  0.00  0.00    +0.000 C 
BRANCH  19  20
ATOM     20  O   UNL     1       4.681   0.595   1.670  0.00  0.00    +0.000 OA
BRANCH  20  22
ATOM     21  C   UNL     1       3.140  -1.055   0.606  0.00  0.00    +0.000 A 
ATOM     22  C   UNL     1       4.286  -0.678   1.326  0.00  0.00    +0.000 A 
ATOM     23  C   UNL     1       5.165  -1.679   1.760  0.00  0.00    +0.000 A 
ATOM     24  C   UNL     1       4.890  -3.036   1.541  0.00  0.00    +0.000 A 
ATOM     25  C   UNL     1       3.710  -3.416   0.890  0.00  0.00    +0.000 A 
ATOM     26  C   UNL     1       2.844  -2.412   0.424  0.00  0.00    +0.000 A 
BRANCH  25  27
ATOM     27  C   UNL     1       3.361  -4.836   0.615  0.00  0.00    +0.000 C 
ATOM     28  C   UNL     1       4.243  -5.979   1.005  0.00  0.00    +0.000 C 
ATOM     29  O   UNL     1       2.269  -5.082   0.013  0.00  0.00    +0.000 OA
ENDBRANCH  25  27
BRANCH  21  31
ATOM     30  C   UNL     1       1.030  -0.136   0.037  0.00  0.00    +0.000 C 
ATOM     31  O   UNL     1       2.445  -0.096  -0.081  0.00  0.00    +0.000 OA
ENDBRANCH  21  31
ENDBRANCH  20  22
ENDBRANCH  19  20
ENDBRANCH  18  19
ENDBRANCH  17  18
ENDBRANCH   1  17
TORSDOF 8
