REMARK  Name = Iloprost
REMARK  14 active torsions:
REMARK  status: ('A' for Active; 'I' for Inactive)
REMARK    1  A    between atoms: C_4  and  O_5
REMARK    2  A    between atoms: C_6  and  C_7
REMARK    3  A    between atoms: C_8  and  C_9
REMARK    4  A    between atoms: C_9  and  O_10
REMARK    5  A    between atoms: C_9  and  C_11
REMARK    6  A    between atoms: C_11  and  C_12
REMARK    7  A    between atoms: C_11  and  C_13
REMARK    8  A    between atoms: C_13  and  C_14
REMARK    9  A    between atoms: C_15  and  C_16
REMARK   10  A    between atoms: C_22  and  C_23
REMARK   11  A    between atoms: C_23  and  C_24
REMARK   12  A    between atoms: C_24  and  C_25
REMARK   13  A    between atoms: C_25  and  C_26
REMARK   14  A    between atoms: C_26  and  O_27
REMARK                            x       y       z     vdW  Elec       q    Type
REMARK                         _______ _______ _______ _____ _____    ______ ____
ROOT
ATOM      1  C   UNL     1       2.042  -0.031  -0.019  0.00  0.00    +0.000 C 
ATOM      2  C   UNL     1       2.580   1.369  -0.253  0.00  0.00    +0.000 C 
ATOM      3  C   UNL     1       4.039   1.166  -0.658  0.00  0.00    +0.000 C 
ATOM      4  C   UNL     1       4.149  -0.286  -1.215  0.00  0.00    +0.000 C 
ATOM      5  C   UNL     1       2.763  -0.945  -1.011  0.00  0.00    +0.000 C 
ATOM      6  C   UNL     1       2.830  -2.320  -0.324  0.00  0.00    +0.000 C 
ATOM      7  C   UNL     1       2.619  -2.003   1.132  0.00  0.00    +0.000 C 
ATOM      8  C   UNL     1       2.443  -0.540   1.345  0.00  0.00    +0.000 C 
ATOM      9  C   UNL     1       2.596  -2.863   2.157  0.00  0.00    +0.000 C 
ENDROOT
BRANCH   3  10
ATOM     10  O   UNL     1       4.939   1.401   0.423  0.00  0.00    +0.000 OA
ATOM     11  H   UNL     1       4.872   0.692   1.077  0.00  0.00    +0.000 HD
ENDBRANCH   3  10
BRANCH   4  12
ATOM     12  C   UNL     1       4.553  -0.366  -2.665  0.00  0.00    +0.000 C 
ATOM     13  C   UNL     1       4.323   0.619  -3.543  0.00  0.00    +0.000 C 
BRANCH  13  14
ATOM     14  C   UNL     1       4.817   0.663  -4.945  0.00  0.00    +0.000 C 
BRANCH  14  15
ATOM     15  O   UNL     1       4.176  -0.385  -5.658  0.00  0.00    +0.000 OA
ATOM     16  H   UNL     1       3.218  -0.260  -5.550  0.00  0.00    +0.000 HD
ENDBRANCH  14  15
BRANCH  14  17
ATOM     17  C   UNL     1       4.496   2.025  -5.582  0.00  0.00    +0.000 C 
ATOM     18  C   UNL     1       5.185   3.185  -4.839  0.00  0.00    +0.000 C 
BRANCH  17  19
ATOM     19  C   UNL     1       4.930   1.995  -7.040  0.00  0.00    +0.000 C 
BRANCH  19  20
ATOM     20  C   UNL     1       4.576   3.315  -7.704  0.00  0.00    +0.000 C 
ATOM     21  C   UNL     1       4.272   4.448  -8.274  0.00  0.00    +0.000 C 
ATOM     22  C   UNL     1       3.918   5.768  -8.939  0.00  0.00    +0.000 C 
ENDBRANCH  19  20
ENDBRANCH  17  19
ENDBRANCH  14  17
ENDBRANCH  13  14
ENDBRANCH   4  12
BRANCH   9  23
ATOM     23  C   UNL     1       2.410  -2.372   3.570  0.00  0.00    +0.000 C 
BRANCH  23  24
ATOM     24  C   UNL     1       2.410  -3.535   4.537  0.00  0.00    +0.000 C 
BRANCH  24  25
ATOM     25  C   UNL     1       2.210  -3.083   5.974  0.00  0.00    +0.000 C 
BRANCH  25  26
ATOM     26  C   UNL     1       2.193  -4.202   6.988  0.00  0.00    +0.000 C 
ATOM     27  O   UNL     1       2.041  -3.985   8.188  0.00  0.00    +0.000 OA
BRANCH  26  28
ATOM     28  O   UNL     1       2.352  -5.457   6.528  0.00  0.00    +0.000 OA
ATOM     29  H   UNL     1       2.470  -5.579   5.569  0.00  0.00    +0.000 HD
ENDBRANCH  26  28
ENDBRANCH  25  26
ENDBRANCH  24  25
ENDBRANCH  23  24
ENDBRANCH   9  23
TORSDOF 12
