REMARK  Name = Imatinib
REMARK  8 active torsions:
REMARK  status: ('A' for Active; 'I' for Inactive)
REMARK    1  A    between atoms: C_1  and  N_2
REMARK    2  A    between atoms: N_5  and  C_6
REMARK    3  A    between atoms: C_6  and  C_7
REMARK    4  A    between atoms: C_10  and  C_13
REMARK    5  A    between atoms: N_15  and  C_16
REMARK    6  A    between atoms: C_18  and  N_19
REMARK    7  A    between atoms: C_24  and  C_26
REMARK    8  A    between atoms: C_32  and  C_33
REMARK                            x       y       z     vdW  Elec       q    Type
REMARK                         _______ _______ _______ _____ _____    ______ ____
ROOT
ATOM      1  C   UNL     1      -4.660  -7.475   3.278  0.00  0.00    +0.000 A 
ATOM      2  C   UNL     1      -3.934  -8.634   3.621  0.00  0.00    +0.000 A 
ATOM      3  C   UNL     1      -4.582  -9.891   3.759  0.00  0.00    +0.000 A 
ATOM      4  C   UNL     1      -5.993  -9.906   3.664  0.00  0.00    +0.000 A 
ATOM      5  C   UNL     1      -6.874 -11.064   4.036  0.00  0.00    +0.000 C 
ATOM      6  C   UNL     1      -6.684  -8.766   3.238  0.00  0.00    +0.000 A 
ATOM      7  C   UNL     1      -6.026  -7.567   3.047  0.00  0.00    +0.000 A 
ENDROOT
BRANCH   3   8
ATOM      8  N   UNL     1      -3.808 -11.075   3.867  0.00  0.00    +0.000 N 
ATOM      9  C   UNL     1      -4.249 -12.406   3.787  0.00  0.00    +0.000 A 
ATOM     10  N   UNL     1      -4.145 -13.163   4.895  0.00  0.00    +0.000 NA
ATOM     11  C   UNL     1      -4.902 -14.282   4.946  0.00  0.00    +0.000 A 
ATOM     12  C   UNL     1      -5.712 -14.706   3.922  0.00  0.00    +0.000 A 
ATOM     13  C   UNL     1      -5.705 -13.923   2.791  0.00  0.00    +0.000 A 
ATOM     14  N   UNL     1      -4.962 -12.794   2.705  0.00  0.00    +0.000 NA
ATOM     15  H   UNL     1      -2.867 -10.997   4.217  0.00  0.00    +0.000 HD
BRANCH  13  16
ATOM     16  C   UNL     1      -6.533 -14.270   1.630  0.00  0.00    +0.000 A 
ATOM     17  C   UNL     1      -5.955 -14.438   0.376  0.00  0.00    +0.000 A 
ATOM     18  N   UNL     1      -6.613 -14.869  -0.730  0.00  0.00    +0.000 NA
ATOM     19  C   UNL     1      -7.931 -15.125  -0.592  0.00  0.00    +0.000 A 
ATOM     20  C   UNL     1      -8.621 -14.967   0.597  0.00  0.00    +0.000 A 
ATOM     21  C   UNL     1      -7.912 -14.530   1.718  0.00  0.00    +0.000 A 
ENDBRANCH  13  16
ENDBRANCH   3   8
BRANCH   1  24
ATOM     22  C   UNL     1      -4.632  -5.007   3.341  0.00  0.00    +0.000 C 
ATOM     23  O   UNL     1      -5.711  -4.884   3.936  0.00  0.00    +0.000 OA
ATOM     24  N   UNL     1      -4.019  -6.231   3.071  0.00  0.00    +0.000 N 
ATOM     25  H   UNL     1      -3.080  -6.278   2.705  0.00  0.00    +0.000 HD
BRANCH  22  29
ATOM     26  C   UNL     1      -2.765  -1.334   2.089  0.00  0.00    +0.000 A 
ATOM     27  C   UNL     1      -4.017  -1.316   2.699  0.00  0.00    +0.000 A 
ATOM     28  C   UNL     1      -4.564  -2.511   3.182  0.00  0.00    +0.000 A 
ATOM     29  C   UNL     1      -3.948  -3.755   2.931  0.00  0.00    +0.000 A 
ATOM     30  C   UNL     1      -2.713  -3.772   2.308  0.00  0.00    +0.000 A 
ATOM     31  C   UNL     1      -2.104  -2.570   1.995  0.00  0.00    +0.000 A 
BRANCH  26  32
ATOM     32  C   UNL     1      -2.093  -0.064   1.605  0.00  0.00    +0.000 C 
BRANCH  32  37
ATOM     33  C   UNL     1       2.479   0.009   0.057  0.00  0.00    +0.000 C 
ATOM     34  N   UNL     1       1.077   0.037  -0.321  0.00  0.00    +0.000 NA
ATOM     35  C   UNL     1       0.388   1.226   0.219  0.00  0.00    +0.000 C 
ATOM     36  C   UNL     1      -1.114   1.257  -0.181  0.00  0.00    +0.000 C 
ATOM     37  N   UNL     1      -1.867   0.016   0.143  0.00  0.00    +0.000 NA
ATOM     38  C   UNL     1      -1.078  -1.111  -0.409  0.00  0.00    +0.000 C 
ATOM     39  C   UNL     1       0.369  -1.163   0.140  0.00  0.00    +0.000 C 
ENDBRANCH  32  37
ENDBRANCH  26  32
ENDBRANCH  22  29
ENDBRANCH   1  24
TORSDOF 6
