REMARK  Name = Imidurea
REMARK  8 active torsions:
REMARK  status: ('A' for Active; 'I' for Inactive)
REMARK    1  A    between atoms: O_1  and  C_2
REMARK    2  A    between atoms: C_2  and  N_3
REMARK    3  A    between atoms: C_4  and  N_5
REMARK    4  A    between atoms: N_8  and  C_9
REMARK    5  A    between atoms: C_9  and  N_10
REMARK    6  A    between atoms: N_13  and  C_14
REMARK    7  A    between atoms: N_15  and  C_16
REMARK    8  A    between atoms: C_16  and  O_17
REMARK                            x       y       z     vdW  Elec       q    Type
REMARK                         _______ _______ _______ _____ _____    ______ ____
ROOT
ATOM      1  C   UNL     1       6.924   2.201   1.035  0.00  0.00    +0.000 C 
ENDROOT
BRANCH   1   5
ATOM      2  N   UNL     1       5.246  -0.978   0.132  0.00  0.00    +0.000 N 
ATOM      3  C   UNL     1       5.568   0.364   0.099  0.00  0.00    +0.000 C 
ATOM      4  O   UNL     1       4.911   1.172  -0.549  0.00  0.00    +0.000 OA
ATOM      5  N   UNL     1       6.618   0.767   0.904  0.00  0.00    +0.000 N 
ATOM      6  H   UNL     1       5.932  -1.646   0.453  0.00  0.00    +0.000 HD
ATOM      7  H   UNL     1       7.205   0.083   1.348  0.00  0.00    +0.000 HD
BRANCH   2   9
ATOM      8  N   UNL     1       2.814  -1.273  -0.182  0.00  0.00    +0.000 N 
ATOM      9  C   UNL     1       4.149  -1.524  -0.694  0.00  0.00    +0.000 C 
ATOM     10  C   UNL     1       4.080  -3.084  -0.727  0.00  0.00    +0.000 C 
ATOM     11  O   UNL     1       4.955  -3.845  -1.115  0.00  0.00    +0.000 OA
ATOM     12  N   UNL     1       2.902  -3.489  -0.183  0.00  0.00    +0.000 N 
ATOM     13  C   UNL     1       2.150  -2.425   0.176  0.00  0.00    +0.000 C 
ATOM     14  O   UNL     1       1.063  -2.548   0.730  0.00  0.00    +0.000 OA
ATOM     15  H   UNL     1       2.596  -4.438  -0.045  0.00  0.00    +0.000 HD
BRANCH   8  16
ATOM     16  C   UNL     1       2.329   0.059   0.037  0.00  0.00    +0.000 C 
BRANCH  16  17
ATOM     17  O   UNL     1       0.920   0.083  -0.025  0.00  0.00    +0.000 OA
ATOM     18  H   UNL     1       0.650   0.981   0.222  0.00  0.00    +0.000 HD
ENDBRANCH  16  17
ENDBRANCH   8  16
ENDBRANCH   2   9
ENDBRANCH   1   5
BRANCH   1  19
ATOM     19  N   UNL     1       8.050   2.552   1.906  0.00  0.00    +0.000 N 
ATOM     20  C   UNL     1       8.391   3.889   2.122  0.00  0.00    +0.000 C 
ATOM     21  O   UNL     1       7.804   4.822   1.592  0.00  0.00    +0.000 OA
ATOM     22  N   UNL     1       9.446   4.082   2.994  0.00  0.00    +0.000 N 
ATOM     23  H   UNL     1       8.618   1.813   2.278  0.00  0.00    +0.000 HD
ATOM     24  H   UNL     1      10.023   3.280   3.190  0.00  0.00    +0.000 HD
BRANCH  22  25
ATOM     25  C   UNL     1      10.091   5.389   3.205  0.00  0.00    +0.000 C 
ATOM     26  N   UNL     1       9.528   6.405   4.090  0.00  0.00    +0.000 N 
ATOM     27  C   UNL     1       9.673   7.666   3.520  0.00  0.00    +0.000 C 
ATOM     28  O   UNL     1       9.558   8.748   4.079  0.00  0.00    +0.000 OA
ATOM     29  N   UNL     1      10.062   7.533   2.230  0.00  0.00    +0.000 N 
ATOM     30  C   UNL     1      10.367   6.239   1.938  0.00  0.00    +0.000 C 
ATOM     31  O   UNL     1      10.851   5.850   0.886  0.00  0.00    +0.000 OA
ATOM     32  H   UNL     1      10.180   8.314   1.606  0.00  0.00    +0.000 HD
BRANCH  26  33
ATOM     33  C   UNL     1       9.364   6.181   5.506  0.00  0.00    +0.000 C 
BRANCH  33  34
ATOM     34  O   UNL     1       9.045   7.355   6.229  0.00  0.00    +0.000 OA
ATOM     35  H   UNL     1       9.683   8.050   5.975  0.00  0.00    +0.000 HD
ENDBRANCH  33  34
ENDBRANCH  26  33
ENDBRANCH  22  25
ENDBRANCH   1  19
TORSDOF 8
