REMARK  Name = Imipenem
REMARK  9 active torsions:
REMARK  status: ('A' for Active; 'I' for Inactive)
REMARK    1  A    between atoms: C_4  and  S_5
REMARK    2  A    between atoms: S_5  and  C_6
REMARK    3  A    between atoms: C_6  and  C_7
REMARK    4  A    between atoms: C_7  and  N_8
REMARK    5  A    between atoms: C_11  and  C_20
REMARK    6  A    between atoms: C_15  and  C_17
REMARK    7  A    between atoms: C_17  and  C_18
REMARK    8  A    between atoms: C_17  and  O_19
REMARK    9  A    between atoms: C_20  and  O_21
REMARK                            x       y       z     vdW  Elec       q    Type
REMARK                         _______ _______ _______ _____ _____    ______ ____
ROOT
ATOM      1  C   UNL     1       2.090  -0.170  -0.032  0.00  0.00    +0.000 C 
ATOM      2  C   UNL     1       2.505  -1.577  -0.435  0.00  0.00    +0.000 C 
ATOM      3  C   UNL     1       3.511  -1.976   0.641  0.00  0.00    +0.000 C 
ATOM      4  C   UNL     1       3.681  -0.959   1.525  0.00  0.00    +0.000 C 
ATOM      5  N   UNL     1       2.886   0.153   1.188  0.00  0.00    +0.000 N 
ATOM      6  C   UNL     1       3.466   1.262   0.617  0.00  0.00    +0.000 C 
ATOM      7  O   UNL     1       4.314   1.992   1.080  0.00  0.00    +0.000 OA
ATOM      8  C   UNL     1       2.796   1.015  -0.752  0.00  0.00    +0.000 C 
ENDROOT
BRANCH   8   9
ATOM      9  C   UNL     1       1.999   2.150  -1.382  0.00  0.00    +0.000 C 
ATOM     10  C   UNL     1       1.211   1.652  -2.592  0.00  0.00    +0.000 C 
BRANCH   9  11
ATOM     11  O   UNL     1       2.909   3.146  -1.849  0.00  0.00    +0.000 OA
ATOM     12  H   UNL     1       3.555   2.732  -2.450  0.00  0.00    +0.000 HD
ENDBRANCH   9  11
ENDBRANCH   8   9
BRANCH   4  13
ATOM     13  C   UNL     1       4.558  -0.874   2.756  0.00  0.00    +0.000 C 
ATOM     14  O   UNL     1       5.300  -1.745   3.174  0.00  0.00    +0.000 OA
BRANCH  13  15
ATOM     15  O   UNL     1       4.459   0.251   3.489  0.00  0.00    +0.000 OA
ATOM     16  H   UNL     1       3.999   0.994   3.066  0.00  0.00    +0.000 HD
ENDBRANCH  13  15
ENDBRANCH   4  13
BRANCH   3  17
ATOM     17  S   UNL     1       4.194  -3.575   0.448  0.00  0.00    +0.000 S 
BRANCH  17  18
ATOM     18  C   UNL     1       5.373  -3.856   1.796  0.00  0.00    +0.000 C 
BRANCH  18  19
ATOM     19  C   UNL     1       6.117  -5.192   1.858  0.00  0.00    +0.000 C 
BRANCH  19  20
ATOM     20  N   UNL     1       6.997  -5.150   3.046  0.00  0.00    +0.000 NA
ATOM     21  C   UNL     1       7.696  -6.202   3.253  0.00  0.00    +0.000 C 
ATOM     22  N   UNL     1       8.551  -6.335   4.292  0.00  0.00    +0.000 N 
ATOM     23  H   UNL     1       8.647  -5.562   4.941  0.00  0.00    +0.000 HD
ATOM     24  H   UNL     1       9.103  -7.166   4.449  0.00  0.00    +0.000 HD
ENDBRANCH  19  20
ENDBRANCH  18  19
ENDBRANCH  17  18
ENDBRANCH   3  17
TORSDOF 8
