REMARK  Name = Imipramine
REMARK  6 active torsions:
REMARK  status: ('A' for Active; 'I' for Inactive)
REMARK    1  A    between atoms: C_1  and  N_2
REMARK    2  A    between atoms: N_2  and  C_3
REMARK    3  A    between atoms: N_2  and  C_4
REMARK    4  A    between atoms: C_4  and  C_5
REMARK    5  A    between atoms: C_5  and  C_6
REMARK    6  A    between atoms: C_6  and  N_7
REMARK                            x       y       z     vdW  Elec       q    Type
REMARK                         _______ _______ _______ _____ _____    ______ ____
ROOT
ATOM      1  N   UNL     1       6.514  -1.549   2.298  0.00  0.00    +0.000 N 
ATOM      2  C   UNL     1       7.231  -1.503   1.093  0.00  0.00    +0.000 A 
ATOM      3  C   UNL     1       6.960  -2.477   0.109  0.00  0.00    +0.000 A 
ATOM      4  C   UNL     1       7.654  -2.507  -1.097  0.00  0.00    +0.000 A 
ATOM      5  C   UNL     1       8.654  -1.578  -1.332  0.00  0.00    +0.000 A 
ATOM      6  C   UNL     1       8.944  -0.608  -0.372  0.00  0.00    +0.000 A 
ATOM      7  C   UNL     1       8.234  -0.544   0.845  0.00  0.00    +0.000 A 
ATOM      8  C   UNL     1       8.621   0.585   1.789  0.00  0.00    +0.000 C 
ATOM      9  C   UNL     1       7.781   0.835   3.048  0.00  0.00    +0.000 C 
ATOM     10  C   UNL     1       7.814  -0.361   3.961  0.00  0.00    +0.000 A 
ATOM     11  C   UNL     1       8.552  -0.360   5.152  0.00  0.00    +0.000 A 
ATOM     12  C   UNL     1       8.637  -1.524   5.916  0.00  0.00    +0.000 A 
ATOM     13  C   UNL     1       7.983  -2.683   5.505  0.00  0.00    +0.000 A 
ATOM     14  C   UNL     1       7.228  -2.679   4.331  0.00  0.00    +0.000 A 
ATOM     15  C   UNL     1       7.146  -1.521   3.551  0.00  0.00    +0.000 A 
ENDROOT
BRANCH   1  16
ATOM     16  C   UNL     1       5.040  -1.579   2.294  0.00  0.00    +0.000 C 
BRANCH  16  17
ATOM     17  C   UNL     1       4.466  -0.767   1.126  0.00  0.00    +0.000 C 
BRANCH  17  18
ATOM     18  C   UNL     1       2.943  -0.714   1.117  0.00  0.00    +0.000 C 
BRANCH  18  20
ATOM     19  C   UNL     1       0.978  -0.021  -0.091  0.00  0.00    +0.000 C 
ATOM     20  N   UNL     1       2.440   0.015  -0.064  0.00  0.00    +0.000 NA
ATOM     21  C   UNL     1       2.899   1.407  -0.091  0.00  0.00    +0.000 C 
ENDBRANCH  18  20
ENDBRANCH  17  18
ENDBRANCH  16  17
ENDBRANCH   1  16
TORSDOF 4
