REMARK  Name = Imiquimod
REMARK  4 active torsions:
REMARK  status: ('A' for Active; 'I' for Inactive)
REMARK    1  A    between atoms: C_1  and  C_2
REMARK    2  A    between atoms: C_2  and  C_3
REMARK    3  A    between atoms: C_2  and  C_4
REMARK    4  A    between atoms: C_4  and  N_5
REMARK                            x       y       z     vdW  Elec       q    Type
REMARK                         _______ _______ _______ _____ _____    ______ ____
ROOT
ATOM      1  N   UNL     1       4.468   0.542   1.329  0.00  0.00    +0.000 N 
ATOM      2  C   UNL     1       5.227   1.685   1.323  0.00  0.00    +0.000 A 
ATOM      3  N   UNL     1       6.507   1.420   1.312  0.00  0.00    +0.000 NA
ATOM      4  C   UNL     1       6.585   0.041   1.311  0.00  0.00    +0.000 A 
ATOM      5  C   UNL     1       5.316  -0.548   1.331  0.00  0.00    +0.000 A 
ATOM      6  C   UNL     1       5.177  -1.969   1.328  0.00  0.00    +0.000 A 
ATOM      7  C   UNL     1       6.399  -2.682   1.300  0.00  0.00    +0.000 A 
ATOM      8  C   UNL     1       6.345  -4.070   1.288  0.00  0.00    +0.000 A 
ATOM      9  C   UNL     1       5.134  -4.770   1.287  0.00  0.00    +0.000 A 
ATOM     10  C   UNL     1       3.935  -4.073   1.310  0.00  0.00    +0.000 A 
ATOM     11  C   UNL     1       3.950  -2.679   1.349  0.00  0.00    +0.000 A 
ATOM     12  N   UNL     1       7.615  -2.110   1.287  0.00  0.00    +0.000 NA
ATOM     13  C   UNL     1       7.739  -0.765   1.291  0.00  0.00    +0.000 A 
ATOM     14  N   UNL     1       9.005  -0.222   1.271  0.00  0.00    +0.000 N 
ATOM     15  H   UNL     1       9.796  -0.841   1.293  0.00  0.00    +0.000 HD
ATOM     16  H   UNL     1       9.088   0.785   1.297  0.00  0.00    +0.000 HD
ENDROOT
BRANCH   1  17
ATOM     17  C   UNL     1       3.018   0.568   1.272  0.00  0.00    +0.000 C 
BRANCH  17  19
ATOM     18  C   UNL     1       0.926   0.079  -0.038  0.00  0.00    +0.000 C 
ATOM     19  C   UNL     1       2.452   0.102  -0.079  0.00  0.00    +0.000 C 
ATOM     20  C   UNL     1       2.945   0.972  -1.234  0.00  0.00    +0.000 C 
ENDBRANCH  17  19
ENDBRANCH   1  17
TORSDOF 2
