REMARK  Name = Indacaterol
REMARK  10 active torsions:
REMARK  status: ('A' for Active; 'I' for Inactive)
REMARK    1  A    between atoms: C_1  and  C_2
REMARK    2  A    between atoms: C_2  and  C_3
REMARK    3  A    between atoms: C_4  and  C_5
REMARK    4  A    between atoms: C_5  and  C_6
REMARK    5  A    between atoms: C_10  and  N_14
REMARK    6  A    between atoms: N_14  and  C_15
REMARK    7  A    between atoms: C_15  and  C_16
REMARK    8  A    between atoms: C_16  and  O_17
REMARK    9  A    between atoms: C_16  and  C_18
REMARK   10  A    between atoms: C_26  and  O_27
REMARK                            x       y       z     vdW  Elec       q    Type
REMARK                         _______ _______ _______ _____ _____    ______ ____
ROOT
ATOM      1  C   UNL     1       5.769   4.397   8.078  0.00  0.00    +0.000 C 
ENDROOT
BRANCH   1   2
ATOM      2  C   UNL     1       6.185   5.849   8.455  0.00  0.00    +0.000 A 
ATOM      3  C   UNL     1       7.160   6.260   9.427  0.00  0.00    +0.000 A 
ATOM      4  C   UNL     1       8.015   5.390  10.268  0.00  0.00    +0.000 A 
ATOM      5  C   UNL     1       9.268   5.723  10.574  0.00  0.00    +0.000 A 
ATOM      6  C   UNL     1       9.379   7.123  11.018  0.00  0.00    +0.000 A 
ATOM      7  O   UNL     1      10.203   7.429  11.852  0.00  0.00    +0.000 OA
ATOM      8  N   UNL     1       8.452   8.003  10.520  0.00  0.00    +0.000 N 
ATOM      9  C   UNL     1       7.426   7.637   9.624  0.00  0.00    +0.000 A 
ATOM     10  C   UNL     1       6.705   8.604   8.926  0.00  0.00    +0.000 A 
ATOM     11  C   UNL     1       5.756   8.225   7.988  0.00  0.00    +0.000 A 
ATOM     12  C   UNL     1       5.501   6.872   7.755  0.00  0.00    +0.000 A 
ATOM     13  H   UNL     1       8.543   8.934  10.887  0.00  0.00    +0.000 HD
BRANCH  10  14
ATOM     14  O   UNL     1       6.905   9.946   9.078  0.00  0.00    +0.000 OA
ATOM     15  H   UNL     1       7.622  10.092   9.711  0.00  0.00    +0.000 HD
ENDBRANCH  10  14
ENDBRANCH   1   2
BRANCH   1  16
ATOM     16  O   UNL     1       5.577   4.324   6.652  0.00  0.00    +0.000 OA
ATOM     17  H   UNL     1       6.440   4.514   6.240  0.00  0.00    +0.000 HD
ENDBRANCH   1  16
BRANCH   1  18
ATOM     18  C   UNL     1       6.824   3.336   8.416  0.00  0.00    +0.000 C 
BRANCH  18  19
ATOM     19  N   UNL     1       6.616   2.039   9.074  0.00  0.00    +0.000 NA
ATOM     20  H   UNL     1       6.100   2.191   9.947  0.00  0.00    +0.000 HD
BRANCH  19  26
ATOM     21  C   UNL     1      10.976  -2.087   9.742  0.00  0.00    +0.000 A 
ATOM     22  C   UNL     1      11.647  -1.380   8.707  0.00  0.00    +0.000 A 
ATOM     23  C   UNL     1      10.998  -0.246   8.161  0.00  0.00    +0.000 A 
ATOM     24  C   UNL     1       9.789   0.191   8.700  0.00  0.00    +0.000 A 
ATOM     25  C   UNL     1       8.913   1.308   8.236  0.00  0.00    +0.000 C 
ATOM     26  C   UNL     1       7.968   1.517   9.454  0.00  0.00    +0.000 C 
ATOM     27  C   UNL     1       7.889   0.155  10.166  0.00  0.00    +0.000 C 
ATOM     28  C   UNL     1       9.200  -0.461   9.779  0.00  0.00    +0.000 A 
ATOM     29  C   UNL     1       9.781  -1.594  10.305  0.00  0.00    +0.000 A 
BRANCH  21  31
ATOM     30  C   UNL     1      11.354  -4.453   9.069  0.00  0.00    +0.000 C 
ATOM     31  C   UNL     1      11.439  -3.437  10.218  0.00  0.00    +0.000 C 
ENDBRANCH  21  31
BRANCH  22  32
ATOM     32  C   UNL     1      12.991  -1.797   8.094  0.00  0.00    +0.000 C 
ATOM     33  C   UNL     1      13.919  -2.812   8.787  0.00  0.00    +0.000 C 
ENDBRANCH  22  32
ENDBRANCH  19  26
ENDBRANCH  18  19
ENDBRANCH   1  18
TORSDOF 8
