REMARK  Name = Indapamide
REMARK  5 active torsions:
REMARK  status: ('A' for Active; 'I' for Inactive)
REMARK    1  A    between atoms: C_1  and  C_2
REMARK    2  A    between atoms: N_10  and  N_11
REMARK    3  A    between atoms: C_12  and  C_14
REMARK    4  A    between atoms: C_16  and  S_21
REMARK    5  A    between atoms: S_21  and  N_22
REMARK                            x       y       z     vdW  Elec       q    Type
REMARK                         _______ _______ _______ _____ _____    ______ ____
ROOT
ATOM      1  N   UNL     1       2.948  -2.549   0.399  0.00  0.00    +0.000 N 
ATOM      2  C   UNL     1       3.403  -3.723   1.003  0.00  0.00    +0.000 C 
ATOM      3  O   UNL     1       4.235  -3.992   1.867  0.00  0.00    +0.000 OA
ATOM      4  H   UNL     1       2.298  -2.618  -0.379  0.00  0.00    +0.000 HD
ENDROOT
BRANCH   1  14
ATOM      5  C   UNL     1       1.159   0.063   0.072  0.00  0.00    +0.000 C 
ATOM      6  C   UNL     1       2.693   0.026   0.159  0.00  0.00    +0.000 C 
ATOM      7  C   UNL     1       3.274   1.243   0.998  0.00  0.00    +0.000 C 
ATOM      8  C   UNL     1       4.073   0.561   2.078  0.00  0.00    +0.000 A 
ATOM      9  C   UNL     1       4.829   1.091   3.142  0.00  0.00    +0.000 A 
ATOM     10  C   UNL     1       5.479   0.235   4.055  0.00  0.00    +0.000 A 
ATOM     11  C   UNL     1       5.371  -1.119   3.903  0.00  0.00    +0.000 A 
ATOM     12  C   UNL     1       4.612  -1.586   2.860  0.00  0.00    +0.000 A 
ATOM     13  C   UNL     1       3.966  -0.814   1.924  0.00  0.00    +0.000 A 
ATOM     14  N   UNL     1       3.171  -1.208   0.844  0.00  0.00    +0.000 N 
ENDBRANCH   1  14
BRANCH   2  15
ATOM     15  C   UNL     1       2.919  -5.008   0.570  0.00  0.00    +0.000 A 
ATOM     16  C   UNL     1       3.089  -5.381  -0.743  0.00  0.00    +0.000 A 
ATOM     17  C   UNL     1       2.614  -6.632  -1.111  0.00  0.00    +0.000 A 
ATOM     18  C   UNL     1       2.192  -7.564  -0.147  0.00  0.00    +0.000 A 
ATOM     19 CL   UNL     1       1.509  -9.098  -0.527  0.00  0.00    +0.000 Cl
ATOM     20  C   UNL     1       2.288  -7.253   1.207  0.00  0.00    +0.000 A 
ATOM     21  C   UNL     1       2.594  -5.954   1.564  0.00  0.00    +0.000 A 
BRANCH  17  22
ATOM     22  S   UNL     1       2.411  -6.919  -2.831  0.00  0.00    +0.000 S 
ATOM     23  O   UNL     1       1.014  -7.165  -3.052  0.00  0.00    +0.000 OA
ATOM     24  O   UNL     1       3.131  -5.872  -3.535  0.00  0.00    +0.000 OA
BRANCH  22  25
ATOM     25  N   UNL     1       3.270  -8.324  -3.074  0.00  0.00    +0.000 NA
ATOM     26  H   UNL     1       2.826  -9.149  -2.673  0.00  0.00    +0.000 HD
ATOM     27  H   UNL     1       4.280  -8.235  -3.008  0.00  0.00    +0.000 HD
ENDBRANCH  22  25
ENDBRANCH  17  22
ENDBRANCH   2  15
TORSDOF 4
