REMARK  Name = Indecainide
REMARK  8 active torsions:
REMARK  status: ('A' for Active; 'I' for Inactive)
REMARK    1  A    between atoms: C_1  and  C_2
REMARK    2  A    between atoms: C_2  and  C_3
REMARK    3  A    between atoms: C_2  and  N_4
REMARK    4  A    between atoms: N_4  and  C_5
REMARK    5  A    between atoms: C_5  and  C_6
REMARK    6  A    between atoms: C_6  and  C_7
REMARK    7  A    between atoms: C_7  and  C_8
REMARK    8  A    between atoms: C_8  and  C_9
REMARK                            x       y       z     vdW  Elec       q    Type
REMARK                         _______ _______ _______ _____ _____    ______ ____
ROOT
ATOM      1  C   UNL     1       6.964   2.580   3.318  0.00  0.00    +0.000 C 
ATOM      2  C   UNL     1       7.350   3.981   2.793  0.00  0.00    +0.000 A 
ATOM      3  C   UNL     1       8.260   4.310   1.795  0.00  0.00    +0.000 A 
ATOM      4  C   UNL     1       8.434   5.658   1.471  0.00  0.00    +0.000 A 
ATOM      5  C   UNL     1       7.707   6.656   2.137  0.00  0.00    +0.000 A 
ATOM      6  C   UNL     1       6.784   6.322   3.135  0.00  0.00    +0.000 A 
ATOM      7  C   UNL     1       6.611   4.984   3.461  0.00  0.00    +0.000 A 
ATOM      8  C   UNL     1       5.740   4.362   4.435  0.00  0.00    +0.000 A 
ATOM      9  C   UNL     1       4.800   4.919   5.290  0.00  0.00    +0.000 A 
ATOM     10  C   UNL     1       4.043   4.068   6.103  0.00  0.00    +0.000 A 
ATOM     11  C   UNL     1       4.225   2.678   6.056  0.00  0.00    +0.000 A 
ATOM     12  C   UNL     1       5.190   2.118   5.221  0.00  0.00    +0.000 A 
ATOM     13  C   UNL     1       5.938   2.965   4.408  0.00  0.00    +0.000 A 
ENDROOT
BRANCH   1  14
ATOM     14  C   UNL     1       8.182   1.857   3.966  0.00  0.00    +0.000 C 
ATOM     15  N   UNL     1       8.570   0.630   3.494  0.00  0.00    +0.000 N 
ATOM     16  O   UNL     1       8.823   2.318   4.918  0.00  0.00    +0.000 OA
ATOM     17  H   UNL     1       8.200   0.147   2.690  0.00  0.00    +0.000 HD
ATOM     18  H   UNL     1       9.342   0.179   3.964  0.00  0.00    +0.000 HD
ENDBRANCH   1  14
BRANCH   1  19
ATOM     19  C   UNL     1       6.323   1.759   2.174  0.00  0.00    +0.000 C 
BRANCH  19  20
ATOM     20  C   UNL     1       4.804   1.767   2.123  0.00  0.00    +0.000 C 
BRANCH  20  21
ATOM     21  C   UNL     1       4.363   0.831   1.029  0.00  0.00    +0.000 C 
BRANCH  21  22
ATOM     22  N   UNL     1       2.911   0.805   1.011  0.00  0.00    +0.000 NA
ATOM     23  H   UNL     1       2.561   0.491   1.918  0.00  0.00    +0.000 HD
BRANCH  22  25
ATOM     24  C   UNL     1       0.894  -0.059  -0.001  0.00  0.00    +0.000 C 
ATOM     25  C   UNL     1       2.417  -0.064  -0.052  0.00  0.00    +0.000 C 
ATOM     26  C   UNL     1       2.891   0.428  -1.420  0.00  0.00    +0.000 C 
ENDBRANCH  22  25
ENDBRANCH  21  22
ENDBRANCH  20  21
ENDBRANCH  19  20
ENDBRANCH   1  19
TORSDOF 6
