REMARK  Name = Indium In-111 pentetate
REMARK  18 active torsions:
REMARK  status: ('A' for Active; 'I' for Inactive)
REMARK    1  A    between atoms: O_2  and  C_3
REMARK    2  A    between atoms: C_3  and  C_5
REMARK    3  A    between atoms: C_5  and  N_6
REMARK    4  A    between atoms: N_6  and  C_7
REMARK    5  A    between atoms: N_6  and  C_25
REMARK    6  A    between atoms: C_7  and  C_8
REMARK    7  A    between atoms: C_8  and  N_9
REMARK    8  A    between atoms: N_9  and  C_10
REMARK    9  A    between atoms: N_9  and  C_21
REMARK   10  A    between atoms: C_10  and  C_11
REMARK   11  A    between atoms: C_11  and  N_12
REMARK   12  A    between atoms: N_12  and  C_13
REMARK   13  A    between atoms: N_12  and  C_17
REMARK   14  A    between atoms: C_13  and  C_14
REMARK   15  A    between atoms: C_17  and  C_18
REMARK   16  A    between atoms: C_21  and  C_22
REMARK   17  A    between atoms: C_25  and  C_26
REMARK   18  A    between atoms: C_26  and  O_27
REMARK                            x       y       z     vdW  Elec       q    Type
REMARK                         _______ _______ _______ _____ _____    ______ ____
ROOT
ATOM      1 IN   UNL     1       1.078  -0.045  -0.044  0.00  0.00    +0.000 In
ENDROOT
TORSDOF 0
REMARK  Name = Indium In-111 pentetate
REMARK  18 active torsions:
REMARK  status: ('A' for Active; 'I' for Inactive)
REMARK    1  A    between atoms: O_2  and  C_3
REMARK    2  A    between atoms: C_3  and  C_5
REMARK    3  A    between atoms: C_5  and  N_6
REMARK    4  A    between atoms: N_6  and  C_7
REMARK    5  A    between atoms: N_6  and  C_25
REMARK    6  A    between atoms: C_7  and  C_8
REMARK    7  A    between atoms: C_8  and  N_9
REMARK    8  A    between atoms: N_9  and  C_10
REMARK    9  A    between atoms: N_9  and  C_21
REMARK   10  A    between atoms: C_10  and  C_11
REMARK   11  A    between atoms: C_11  and  N_12
REMARK   12  A    between atoms: N_12  and  C_13
REMARK   13  A    between atoms: N_12  and  C_17
REMARK   14  A    between atoms: C_13  and  C_14
REMARK   15  A    between atoms: C_17  and  C_18
REMARK   16  A    between atoms: C_21  and  C_22
REMARK   17  A    between atoms: C_25  and  C_26
REMARK   18  A    between atoms: C_26  and  O_27
REMARK                            x       y       z     vdW  Elec       q    Type
REMARK                         _______ _______ _______ _____ _____    ______ ____
ROOT
ATOM      1  N   UNL     2       4.639  -2.802  -0.968  0.00  0.00    +0.000 NA
ENDROOT
BRANCH   1   2
ATOM      2  C   UNL     2       6.084  -3.022  -0.813  0.00  0.00    +0.000 C 
BRANCH   2   3
ATOM      3  C   UNL     2       6.844  -1.946  -1.572  0.00  0.00    +0.000 C 
BRANCH   3   4
ATOM      4  N   UNL     2       8.289  -2.165  -1.417  0.00  0.00    +0.000 NA
BRANCH   4   5
ATOM      5  C   UNL     2       8.644  -3.487  -1.954  0.00  0.00    +0.000 C 
BRANCH   5   6
ATOM      6  C   UNL     2       7.884  -4.563  -1.196  0.00  0.00    +0.000 C 
ATOM      7  O   UNL     2       6.997  -4.201  -0.148  0.00  0.00    +0.000 OA
ATOM      8  O   UNL     2       8.043  -5.787  -1.499  0.00  0.00    +0.000 OA
ENDBRANCH   5   6
ENDBRANCH   4   5
BRANCH   4   9
ATOM      9  C   UNL     2       9.024  -1.125  -2.150  0.00  0.00    +0.000 C 
BRANCH   9  10
ATOM     10  C   UNL     2      10.518  -1.352  -1.990  0.00  0.00    +0.000 C 
ATOM     11  O   UNL     2      10.992  -2.446  -1.219  0.00  0.00    +0.000 OA
ATOM     12  O   UNL     2      11.344  -0.562  -2.547  0.00  0.00    +0.000 OA
ENDBRANCH   9  10
ENDBRANCH   4   9
ENDBRANCH   3   4
ENDBRANCH   2   3
ENDBRANCH   1   2
BRANCH   1  13
ATOM     13  C   UNL     2       4.283  -1.481  -0.431  0.00  0.00    +0.000 C 
BRANCH  13  14
ATOM     14  C   UNL     2       5.043  -0.405  -1.189  0.00  0.00    +0.000 C 
BRANCH  14  15
ATOM     15  N   UNL     2       4.688   0.917  -0.652  0.00  0.00    +0.000 NA
BRANCH  15  16
ATOM     16  C   UNL     2       5.423   1.958  -1.386  0.00  0.00    +0.000 C 
BRANCH  16  17
ATOM     17  C   UNL     2       6.918   1.730  -1.226  0.00  0.00    +0.000 C 
ATOM     18  O   UNL     2       7.744   2.520  -1.782  0.00  0.00    +0.000 OA
BRANCH  17  19
ATOM     19  O   UNL     2       7.391   0.636  -0.454  0.00  0.00    +0.000 OA
ATOM     20  H   UNL     2       6.782   0.054  -0.044  0.00  0.00    +0.000 HD
ENDBRANCH  17  19
ENDBRANCH  16  17
ENDBRANCH  15  16
BRANCH  15  21
ATOM     21  C   UNL     2       3.243   1.136  -0.807  0.00  0.00    +0.000 C 
BRANCH  21  22
ATOM     22  C   UNL     2       2.483   0.060  -0.049  0.00  0.00    +0.000 C 
ATOM     23  O   UNL     2       3.118  -0.839   0.585  0.00  0.00    +0.000 OA
BRANCH  22  24
ATOM     24  O   UNL     2       1.063   0.060  -0.049  0.00  0.00    +0.000 OA
ATOM     25  H   UNL     2       0.595   0.724  -0.516  0.00  0.00    +0.000 HD
ENDBRANCH  22  24
ENDBRANCH  21  22
ENDBRANCH  15  21
ENDBRANCH  14  15
ENDBRANCH  13  14
ENDBRANCH   1  13
BRANCH   1  26
ATOM     26  C   UNL     2       3.904  -3.843  -0.235  0.00  0.00    +0.000 C 
BRANCH  26  27
ATOM     27  C   UNL     2       4.271  -5.209  -0.790  0.00  0.00    +0.000 C 
ATOM     28  O   UNL     2       5.199  -5.315  -1.859  0.00  0.00    +0.000 OA
ATOM     29  O   UNL     2       3.747  -6.257  -0.298  0.00  0.00    +0.000 OA
ENDBRANCH  26  27
ENDBRANCH   1  26
TORSDOF 18
