REMARK  Name = Indigotindisulfonic acid
REMARK  4 active torsions:
REMARK  status: ('A' for Active; 'I' for Inactive)
REMARK    1  A    between atoms: O_1  and  S_2
REMARK    2  A    between atoms: S_2  and  C_5
REMARK    3  A    between atoms: C_18  and  S_21
REMARK    4  A    between atoms: S_21  and  O_22
REMARK                            x       y       z     vdW  Elec       q    Type
REMARK                         _______ _______ _______ _____ _____    ______ ____
ROOT
ATOM      1  C   UNL     1       3.340   1.224  -1.263  0.00  0.00    +0.000 A 
ATOM      2  C   UNL     1       3.251   2.592  -0.975  0.00  0.00    +0.000 A 
ATOM      3  C   UNL     1       3.584   3.468  -1.997  0.00  0.00    +0.000 A 
ATOM      4  C   UNL     1       3.941   3.041  -3.285  0.00  0.00    +0.000 A 
ATOM      5  N   UNL     1       4.091   4.118  -4.150  0.00  0.00    +0.000 N 
ATOM      6  C   UNL     1       3.933   5.309  -3.470  0.00  0.00    +0.000 C 
ATOM      7  C   UNL     1       3.614   4.949  -2.030  0.00  0.00    +0.000 C 
ATOM      8  O   UNL     1       3.357   5.700  -1.107  0.00  0.00    +0.000 OA
ATOM      9  C   UNL     1       3.935   6.588  -3.871  0.00  0.00    +0.000 C 
ATOM     10  N   UNL     1       4.035   7.768  -3.161  0.00  0.00    +0.000 N 
ATOM     11  C   UNL     1       3.923   8.860  -4.012  0.00  0.00    +0.000 A 
ATOM     12  C   UNL     1       3.652   8.451  -5.327  0.00  0.00    +0.000 A 
ATOM     13  C   UNL     1       3.378   9.343  -6.352  0.00  0.00    +0.000 A 
ATOM     14  C   UNL     1       3.426  10.705  -6.033  0.00  0.00    +0.000 A 
ATOM     15  C   UNL     1       3.757  11.139  -4.728  0.00  0.00    +0.000 A 
ATOM     16  C   UNL     1       4.004  10.205  -3.708  0.00  0.00    +0.000 A 
ATOM     17  C   UNL     1       3.702   6.969  -5.321  0.00  0.00    +0.000 C 
ATOM     18  O   UNL     1       3.514   6.232  -6.271  0.00  0.00    +0.000 OA
ATOM     19  C   UNL     1       4.102   1.693  -3.541  0.00  0.00    +0.000 A 
ATOM     20  C   UNL     1       3.810   0.776  -2.517  0.00  0.00    +0.000 A 
ATOM     21  H   UNL     1       4.304   4.086  -5.138  0.00  0.00    +0.000 HD
ATOM     22  H   UNL     1       4.259   7.779  -2.175  0.00  0.00    +0.000 HD
ENDROOT
BRANCH   1  23
ATOM     23  S   UNL     1       2.847   0.038  -0.027  0.00  0.00    +0.000 S 
ATOM     24  O   UNL     1       3.243   0.539   1.269  0.00  0.00    +0.000 OA
ATOM     25  O   UNL     1       3.234  -1.285  -0.468  0.00  0.00    +0.000 OA
BRANCH  23  26
ATOM     26  O   UNL     1       1.233   0.073  -0.066  0.00  0.00    +0.000 OA
ATOM     27  H   UNL     1       0.891  -0.565   0.595  0.00  0.00    +0.000 HD
ENDBRANCH  23  26
ENDBRANCH   1  23
BRANCH  14  28
ATOM     28  S   UNL     1       3.109  11.928  -7.295  0.00  0.00    +0.000 S 
ATOM     29  O   UNL     1       4.220  12.851  -7.272  0.00  0.00    +0.000 OA
ATOM     30  O   UNL     1       2.706  11.237  -8.502  0.00  0.00    +0.000 OA
BRANCH  28  31
ATOM     31  O   UNL     1       1.822  12.731  -6.739  0.00  0.00    +0.000 OA
ATOM     32  H   UNL     1       2.096  13.375  -6.056  0.00  0.00    +0.000 HD
ENDBRANCH  28  31
ENDBRANCH  14  28
TORSDOF 4
