REMARK  Name = Indinavir
REMARK  17 active torsions:
REMARK  status: ('A' for Active; 'I' for Inactive)
REMARK    1  A    between atoms: C_1  and  C_2
REMARK    2  A    between atoms: C_2  and  C_3
REMARK    3  A    between atoms: C_2  and  C_4
REMARK    4  A    between atoms: C_2  and  N_5
REMARK    5  A    between atoms: C_6  and  C_8
REMARK    6  A    between atoms: N_10  and  C_11
REMARK    7  A    between atoms: C_11  and  C_12
REMARK    8  A    between atoms: N_20  and  C_21
REMARK    9  A    between atoms: C_21  and  C_22
REMARK   10  A    between atoms: C_22  and  O_23
REMARK   11  A    between atoms: C_22  and  C_24
REMARK   12  A    between atoms: C_24  and  C_25
REMARK   13  A    between atoms: C_25  and  C_26
REMARK   14  A    between atoms: C_25  and  C_33
REMARK   15  A    between atoms: C_26  and  C_27
REMARK   16  A    between atoms: N_35  and  C_36
REMARK   17  A    between atoms: C_37  and  O_38
REMARK                            x       y       z     vdW  Elec       q    Type
REMARK                         _______ _______ _______ _____ _____    ______ ____
ROOT
ATOM      1  C   UNL     1       2.281  -0.537  -3.060  0.00  0.00    +0.000 C 
ENDROOT
BRANCH   1   2
ATOM      2  O   UNL     1       2.113   0.996  -3.081  0.00  0.00    +0.000 OA
ATOM      3  H   UNL     1       2.876   1.470  -2.654  0.00  0.00    +0.000 HD
ENDBRANCH   1   2
BRANCH   1   4
ATOM      4  C   UNL     1       2.820  -0.174  -4.407  0.00  0.00    +0.000 C 
BRANCH   4  10
ATOM      5  C   UNL     1       4.719   1.116  -3.292  0.00  0.00    +0.000 C 
ATOM      6  C   UNL     1       4.359   2.602  -3.410  0.00  0.00    +0.000 C 
ATOM      7  N   UNL     1       4.858   3.068  -4.683  0.00  0.00    +0.000 NA
ATOM      8  C   UNL     1       4.309   2.105  -5.680  0.00  0.00    +0.000 C 
ATOM      9  C   UNL     1       4.744   0.613  -5.534  0.00  0.00    +0.000 C 
ATOM     10  N   UNL     1       4.296   0.067  -4.277  0.00  0.00    +0.000 NA
BRANCH   5  12
ATOM     11  N   UNL     1       2.950   0.881  -1.327  0.00  0.00    +0.000 N 
ATOM     12  C   UNL     1       4.415   0.620  -1.954  0.00  0.00    +0.000 C 
ATOM     13  O   UNL     1       5.468   0.056  -1.660  0.00  0.00    +0.000 OA
ATOM     14  H   UNL     1       2.031   1.016  -1.792  0.00  0.00    +0.000 HD
BRANCH  11  16
ATOM     15  C   UNL     1       0.373   0.991  -0.335  0.00  0.00    +0.000 C 
ATOM     16  C   UNL     1       2.134   0.395  -0.244  0.00  0.00    +0.000 C 
ATOM     17  C   UNL     1       2.450   1.391   1.556  0.00  0.00    +0.000 C 
ATOM     18  C   UNL     1       2.375  -1.742   0.157  0.00  0.00    +0.000 C 
ENDBRANCH  11  16
ENDBRANCH   5  12
BRANCH   7  19
ATOM     19  C   UNL     1       6.327   3.040  -4.700  0.00  0.00    +0.000 C 
BRANCH  19  20
ATOM     20  C   UNL     1       6.966   3.880  -3.631  0.00  0.00    +0.000 A 
ATOM     21  C   UNL     1       7.803   4.920  -3.954  0.00  0.00    +0.000 A 
ATOM     22  N   UNL     1       8.466   5.653  -3.030  0.00  0.00    +0.000 NA
ATOM     23  C   UNL     1       8.238   5.368  -1.726  0.00  0.00    +0.000 A 
ATOM     24  C   UNL     1       7.394   4.386  -1.290  0.00  0.00    +0.000 A 
ATOM     25  C   UNL     1       6.830   3.603  -2.265  0.00  0.00    +0.000 A 
ENDBRANCH  19  20
ENDBRANCH   7  19
ENDBRANCH   4  10
ENDBRANCH   1   4
BRANCH   1  26
ATOM     26  C   UNL     1       0.901  -0.785  -2.447  0.00  0.00    +0.000 C 
BRANCH  26  27
ATOM     27  C   UNL     1       0.523  -1.255  -0.600  0.00  0.00    +0.000 C 
BRANCH  27  28
ATOM     28  C   UNL     1      -1.052  -1.204  -0.727  0.00  0.00    +0.000 C 
ATOM     29  O   UNL     1      -1.669  -0.769  -1.700  0.00  0.00    +0.000 OA
ATOM     30  N   UNL     1      -1.668  -1.482   0.440  0.00  0.00    +0.000 N 
ATOM     31  H   UNL     1      -1.060  -1.648   1.225  0.00  0.00    +0.000 HD
BRANCH  30  32
ATOM     32  C   UNL     1      -3.046  -1.070   0.732  0.00  0.00    +0.000 C 
ATOM     33  C   UNL     1      -3.107   0.476   1.102  0.00  0.00    +0.000 C 
ATOM     34  C   UNL     1      -3.739   0.504   2.555  0.00  0.00    +0.000 C 
ATOM     35  C   UNL     1      -3.798  -0.922   2.966  0.00  0.00    +0.000 A 
ATOM     36  C   UNL     1      -4.132  -1.389   4.213  0.00  0.00    +0.000 A 
ATOM     37  C   UNL     1      -3.884  -2.727   4.500  0.00  0.00    +0.000 A 
ATOM     38  C   UNL     1      -3.500  -3.620   3.496  0.00  0.00    +0.000 A 
ATOM     39  C   UNL     1      -3.237  -3.152   2.219  0.00  0.00    +0.000 A 
ATOM     40  C   UNL     1      -3.391  -1.792   1.977  0.00  0.00    +0.000 A 
BRANCH  33  41
ATOM     41  O   UNL     1      -2.820   1.183  -0.101  0.00  0.00    +0.000 OA
ATOM     42  H   UNL     1      -2.603   0.516  -0.788  0.00  0.00    +0.000 HD
ENDBRANCH  33  41
ENDBRANCH  30  32
ENDBRANCH  27  28
BRANCH  27  43
ATOM     43  C   UNL     1       1.423  -0.497   1.143  0.00  0.00    +0.000 C 
BRANCH  43  44
ATOM     44  C   UNL     1       3.555  -0.234   0.859  0.00  0.00    +0.000 A 
ATOM     45  C   UNL     1       4.353  -1.110   0.006  0.00  0.00    +0.000 A 
ATOM     46  C   UNL     1       5.580  -1.069   0.448  0.00  0.00    +0.000 A 
ATOM     47  C   UNL     1       6.136   0.255   0.573  0.00  0.00    +0.000 A 
ATOM     48  C   UNL     1       5.512   1.510   0.462  0.00  0.00    +0.000 A 
ATOM     49  C   UNL     1       4.213   1.297   0.435  0.00  0.00    +0.000 A 
ENDBRANCH  43  44
ENDBRANCH  27  43
ENDBRANCH  26  27
ENDBRANCH   1  26
TORSDOF 14
