REMARK  Name = Indium In-111 oxyquinoline
REMARK  0 active torsions:
REMARK  status: ('A' for Active; 'I' for Inactive)
REMARK                            x       y       z     vdW  Elec       q    Type
REMARK                         _______ _______ _______ _____ _____    ______ ____
ROOT
ATOM      1 IN   UNL     1       0.908  -0.039  -0.008  0.00  0.00    +0.000 In
ENDROOT
TORSDOF 0
REMARK  Name = Indium In-111 oxyquinoline
REMARK  0 active torsions:
REMARK  status: ('A' for Active; 'I' for Inactive)
REMARK                            x       y       z     vdW  Elec       q    Type
REMARK                         _______ _______ _______ _____ _____    ______ ____
ROOT
ATOM      1  O   UNL     1       1.648   2.010  -0.021  0.00  0.00    +0.000 OA
ATOM      2  C   UNL     1       1.342   0.776  -0.006  0.00  0.00    +0.000 A 
ATOM      3  C   UNL     1       2.301  -0.263   0.002  0.00  0.00    +0.000 A 
ATOM      4  C   UNL     1       1.937  -1.617   0.012  0.00  0.00    +0.000 A 
ATOM      5  C   UNL     1       0.614  -2.013   0.005  0.00  0.00    +0.000 A 
ATOM      6  C   UNL     1      -0.427  -1.028  -0.004  0.00  0.00    +0.000 A 
ATOM      7  C   UNL     1      -0.055   0.343   0.012  0.00  0.00    +0.000 A 
ATOM      8  N   UNL     1      -0.962   1.362   0.025  0.00  0.00    +0.000 NA
ATOM      9  C   UNL     1      -2.244   1.076   0.015  0.00  0.00    +0.000 A 
ATOM     10  C   UNL     1      -2.717  -0.254  -0.019  0.00  0.00    +0.000 A 
ATOM     11  C   UNL     1      -1.826  -1.287  -0.018  0.00  0.00    +0.000 A 
ENDROOT
TORSDOF 0
REMARK  Name = Indium In-111 oxyquinoline
REMARK  0 active torsions:
REMARK  status: ('A' for Active; 'I' for Inactive)
REMARK                            x       y       z     vdW  Elec       q    Type
REMARK                         _______ _______ _______ _____ _____    ______ ____
ROOT
ATOM      1  O   UNL     1       1.648   2.010  -0.021  0.00  0.00    +0.000 OA
ATOM      2  C   UNL     1       1.342   0.776  -0.006  0.00  0.00    +0.000 A 
ATOM      3  C   UNL     1       2.301  -0.263   0.002  0.00  0.00    +0.000 A 
ATOM      4  C   UNL     1       1.937  -1.617   0.012  0.00  0.00    +0.000 A 
ATOM      5  C   UNL     1       0.614  -2.013   0.005  0.00  0.00    +0.000 A 
ATOM      6  C   UNL     1      -0.427  -1.028  -0.004  0.00  0.00    +0.000 A 
ATOM      7  C   UNL     1      -0.055   0.343   0.012  0.00  0.00    +0.000 A 
ATOM      8  N   UNL     1      -0.962   1.362   0.025  0.00  0.00    +0.000 NA
ATOM      9  C   UNL     1      -2.244   1.076   0.015  0.00  0.00    +0.000 A 
ATOM     10  C   UNL     1      -2.717  -0.254  -0.019  0.00  0.00    +0.000 A 
ATOM     11  C   UNL     1      -1.826  -1.287  -0.018  0.00  0.00    +0.000 A 
ENDROOT
TORSDOF 0
REMARK  Name = Indium In-111 oxyquinoline
REMARK  0 active torsions:
REMARK  status: ('A' for Active; 'I' for Inactive)
REMARK                            x       y       z     vdW  Elec       q    Type
REMARK                         _______ _______ _______ _____ _____    ______ ____
ROOT
ATOM      1  O   UNL     1       1.648   2.010  -0.021  0.00  0.00    +0.000 OA
ATOM      2  C   UNL     1       1.342   0.776  -0.006  0.00  0.00    +0.000 A 
ATOM      3  C   UNL     1       2.301  -0.263   0.002  0.00  0.00    +0.000 A 
ATOM      4  C   UNL     1       1.937  -1.617   0.012  0.00  0.00    +0.000 A 
ATOM      5  C   UNL     1       0.614  -2.013   0.005  0.00  0.00    +0.000 A 
ATOM      6  C   UNL     1      -0.427  -1.028  -0.004  0.00  0.00    +0.000 A 
ATOM      7  C   UNL     1      -0.055   0.343   0.012  0.00  0.00    +0.000 A 
ATOM      8  N   UNL     1      -0.962   1.362   0.025  0.00  0.00    +0.000 NA
ATOM      9  C   UNL     1      -2.244   1.076   0.015  0.00  0.00    +0.000 A 
ATOM     10  C   UNL     1      -2.717  -0.254  -0.019  0.00  0.00    +0.000 A 
ATOM     11  C   UNL     1      -1.826  -1.287  -0.018  0.00  0.00    +0.000 A 
ENDROOT
TORSDOF 0
