REMARK  Name = Indomethacin
REMARK  7 active torsions:
REMARK  status: ('A' for Active; 'I' for Inactive)
REMARK    1  A    between atoms: C_1  and  O_2
REMARK    2  A    between atoms: O_2  and  C_3
REMARK    3  A    between atoms: C_10  and  C_12
REMARK    4  A    between atoms: C_19  and  C_20
REMARK    5  A    between atoms: C_21  and  C_22
REMARK    6  A    between atoms: C_22  and  C_23
REMARK    7  A    between atoms: C_23  and  O_24
REMARK                            x       y       z     vdW  Elec       q    Type
REMARK                         _______ _______ _______ _____ _____    ______ ____
ROOT
ATOM      1  C   UNL     1       3.137  -0.892   0.549  0.00  0.00    +0.000 A 
ATOM      2  C   UNL     1       4.303  -0.603   1.284  0.00  0.00    +0.000 A 
ATOM      3  C   UNL     1       5.101  -1.641   1.862  0.00  0.00    +0.000 A 
ATOM      4  C   UNL     1       4.674  -2.961   1.682  0.00  0.00    +0.000 A 
ATOM      5  C   UNL     1       3.471  -3.219   0.992  0.00  0.00    +0.000 A 
ATOM      6  C   UNL     1       2.740  -2.202   0.392  0.00  0.00    +0.000 A 
ATOM      7  N   UNL     1       5.607  -3.820   2.280  0.00  0.00    +0.000 N 
ATOM      8  C   UNL     1       5.576  -5.250   2.289  0.00  0.00    +0.000 C 
ATOM      9  O   UNL     1       6.386  -5.906   2.940  0.00  0.00    +0.000 OA
ATOM     10  C   UNL     1       6.590  -3.034   2.895  0.00  0.00    +0.000 A 
ATOM     11  C   UNL     1       7.699  -3.731   3.643  0.00  0.00    +0.000 C 
ATOM     12  C   UNL     1       6.321  -1.663   2.663  0.00  0.00    +0.000 A 
ENDROOT
BRANCH   8  13
ATOM     13  C   UNL     1       4.616  -6.084   1.604  0.00  0.00    +0.000 A 
ATOM     14  C   UNL     1       4.497  -5.984   0.222  0.00  0.00    +0.000 A 
ATOM     15  C   UNL     1       3.349  -6.500  -0.358  0.00  0.00    +0.000 A 
ATOM     16  C   UNL     1       2.467  -7.264   0.413  0.00  0.00    +0.000 A 
ATOM     17 CL   UNL     1       1.003  -7.821  -0.292  0.00  0.00    +0.000 Cl
ATOM     18  C   UNL     1       2.727  -7.534   1.759  0.00  0.00    +0.000 A 
ATOM     19  C   UNL     1       3.784  -6.892   2.382  0.00  0.00    +0.000 A 
ENDBRANCH   8  13
BRANCH   1  21
ATOM     20  C   UNL     1       1.059   0.067  -0.045  0.00  0.00    +0.000 C 
ATOM     21  O   UNL     1       2.485   0.163  -0.033  0.00  0.00    +0.000 OA
ENDBRANCH   1  21
BRANCH  12  22
ATOM     22  C   UNL     1       7.016  -0.316   3.069  0.00  0.00    +0.000 C 
BRANCH  22  23
ATOM     23  C   UNL     1       8.301  -0.179   3.906  0.00  0.00    +0.000 C 
ATOM     24  O   UNL     1       8.820   0.868   4.208  0.00  0.00    +0.000 OA
BRANCH  23  25
ATOM     25  O   UNL     1       8.857  -1.319   4.314  0.00  0.00    +0.000 OA
ATOM     26  H   UNL     1       8.232  -1.926   3.937  0.00  0.00    +0.000 HD
ENDBRANCH  23  25
ENDBRANCH  22  23
ENDBRANCH  12  22
TORSDOF 5
