REMARK  Name = Indoramin
REMARK  5 active torsions:
REMARK  status: ('A' for Active; 'I' for Inactive)
REMARK    1  A    between atoms: C_2  and  C_21
REMARK    2  A    between atoms: N_3  and  C_4
REMARK    3  A    between atoms: N_7  and  C_8
REMARK    4  A    between atoms: C_8  and  C_9
REMARK    5  A    between atoms: C_9  and  C_10
REMARK                            x       y       z     vdW  Elec       q    Type
REMARK                         _______ _______ _______ _____ _____    ______ ____
ROOT
ATOM      1  C   UNL     1       2.133  -2.350   0.695  0.00  0.00    +0.000 C 
ATOM      2  C   UNL     1       2.336  -3.724  -0.005  0.00  0.00    +0.000 C 
ATOM      3  C   UNL     1       2.238  -3.641  -1.527  0.00  0.00    +0.000 C 
ATOM      4  N   UNL     1       0.988  -2.975  -1.954  0.00  0.00    +0.000 NA
ATOM      5  C   UNL     1       0.814  -1.719  -1.225  0.00  0.00    +0.000 C 
ATOM      6  C   UNL     1       0.719  -1.989   0.297  0.00  0.00    +0.000 C 
ENDROOT
BRANCH   1   9
ATOM      7  O   UNL     1       1.230   0.440   0.150  0.00  0.00    +0.000 OA
ATOM      8  C   UNL     1       2.442   0.123   0.141  0.00  0.00    +0.000 C 
ATOM      9  N   UNL     1       2.999  -1.158   0.357  0.00  0.00    +0.000 N 
ATOM     10  H   UNL     1       4.010  -1.240   0.413  0.00  0.00    +0.000 HD
BRANCH   8  11
ATOM     11  C   UNL     1       3.211   1.273  -0.239  0.00  0.00    +0.000 A 
ATOM     12  C   UNL     1       4.249   1.209  -1.152  0.00  0.00    +0.000 A 
ATOM     13  C   UNL     1       4.922   2.391  -1.427  0.00  0.00    +0.000 A 
ATOM     14  C   UNL     1       4.477   3.611  -0.888  0.00  0.00    +0.000 A 
ATOM     15  C   UNL     1       3.344   3.677  -0.085  0.00  0.00    +0.000 A 
ATOM     16  C   UNL     1       2.710   2.503   0.234  0.00  0.00    +0.000 A 
ENDBRANCH   8  11
ENDBRANCH   1   9
BRANCH   4  17
ATOM     17  C   UNL     1       1.074  -2.686  -3.395  0.00  0.00    +0.000 C 
BRANCH  17  18
ATOM     18  C   UNL     1      -0.107  -1.839  -3.904  0.00  0.00    +0.000 C 
BRANCH  18  19
ATOM     19  C   UNL     1      -0.088  -1.684  -5.376  0.00  0.00    +0.000 A 
ATOM     20  C   UNL     1      -0.071  -0.501  -6.083  0.00  0.00    +0.000 A 
ATOM     21  N   UNL     1      -0.040  -0.813  -7.414  0.00  0.00    +0.000 N 
ATOM     22  C   UNL     1      -0.076  -2.179  -7.582  0.00  0.00    +0.000 A 
ATOM     23  C   UNL     1      -0.104  -2.749  -6.314  0.00  0.00    +0.000 A 
ATOM     24  C   UNL     1      -0.149  -4.151  -6.187  0.00  0.00    +0.000 A 
ATOM     25  C   UNL     1      -0.174  -4.943  -7.329  0.00  0.00    +0.000 A 
ATOM     26  C   UNL     1      -0.163  -4.351  -8.587  0.00  0.00    +0.000 A 
ATOM     27  C   UNL     1      -0.103  -2.959  -8.742  0.00  0.00    +0.000 A 
ATOM     28  H   UNL     1      -0.018  -0.137  -8.164  0.00  0.00    +0.000 HD
ENDBRANCH  18  19
ENDBRANCH  17  18
ENDBRANCH   4  17
TORSDOF 5
