REMARK  Name = Infigratinib
REMARK  11 active torsions:
REMARK  status: ('A' for Active; 'I' for Inactive)
REMARK    1  A    between atoms: C_1  and  C_2
REMARK    2  A    between atoms: C_2  and  N_3
REMARK    3  A    between atoms: N_6  and  C_9
REMARK    4  A    between atoms: C_12  and  N_13
REMARK    5  A    between atoms: N_13  and  C_14
REMARK    6  A    between atoms: N_20  and  C_21
REMARK    7  A    between atoms: N_24  and  C_25
REMARK    8  A    between atoms: C_28  and  O_29
REMARK    9  A    between atoms: O_29  and  C_30
REMARK   10  A    between atoms: C_32  and  O_33
REMARK   11  A    between atoms: O_33  and  C_34
REMARK                            x       y       z     vdW  Elec       q    Type
REMARK                         _______ _______ _______ _____ _____    ______ ____
ROOT
ATOM      1  C   UNL     1      -1.776  -3.045   8.623  0.00  0.00    +0.000 A 
ATOM      2  C   UNL     1      -0.631  -2.621   9.268  0.00  0.00    +0.000 A 
ATOM      3  C   UNL     1      -0.088  -3.367  10.292  0.00  0.00    +0.000 A 
ATOM      4  N   UNL     1      -0.720  -4.493  10.682  0.00  0.00    +0.000 NA
ATOM      5  C   UNL     1      -1.839  -4.834  10.004  0.00  0.00    +0.000 A 
ATOM      6  N   UNL     1      -2.415  -4.159   8.994  0.00  0.00    +0.000 NA
ATOM      7  N   UNL     1       1.131  -2.952  10.962  0.00  0.00    +0.000 N 
ATOM      8  C   UNL     1       1.529  -3.698  12.146  0.00  0.00    +0.000 C 
ATOM      9  C   UNL     1       1.938  -1.932  10.426  0.00  0.00    +0.000 C 
ATOM     10  O   UNL     1       1.798  -1.461   9.308  0.00  0.00    +0.000 OA
ATOM     11  N   UNL     1       2.939  -1.415  11.258  0.00  0.00    +0.000 N 
ATOM     12  H   UNL     1       3.444  -2.028  11.877  0.00  0.00    +0.000 HD
ENDROOT
BRANCH  11  13
ATOM     13  C   UNL     1       3.566  -0.165  10.892  0.00  0.00    +0.000 A 
ATOM     14  C   UNL     1       4.970  -0.017  10.828  0.00  0.00    +0.000 A 
ATOM     15 CL   UNL     1       5.982  -1.420  10.982  0.00  0.00    +0.000 Cl
ATOM     16  C   UNL     1       5.557   1.243  10.557  0.00  0.00    +0.000 A 
ATOM     17  C   UNL     1       4.721   2.313  10.225  0.00  0.00    +0.000 A 
ATOM     18  C   UNL     1       3.319   2.201  10.292  0.00  0.00    +0.000 A 
ATOM     19  C   UNL     1       2.745   0.969  10.669  0.00  0.00    +0.000 A 
ATOM     20 CL   UNL     1       1.050   0.798  11.102  0.00  0.00    +0.000 Cl
BRANCH  16  21
ATOM     21  O   UNL     1       6.927   1.361  10.654  0.00  0.00    +0.000 OA
ATOM     22  C   UNL     1       7.488   2.677  10.592  0.00  0.00    +0.000 C 
ENDBRANCH  16  21
BRANCH  18  23
ATOM     23  O   UNL     1       2.703   3.399  10.018  0.00  0.00    +0.000 OA
ATOM     24  C   UNL     1       1.286   3.447  10.082  0.00  0.00    +0.000 C 
ENDBRANCH  18  23
ENDBRANCH  11  13
BRANCH   1  25
ATOM     25  N   UNL     1      -2.252  -2.244   7.554  0.00  0.00    +0.000 N 
ATOM     26  H   UNL     1      -3.237  -2.414   7.391  0.00  0.00    +0.000 HD
BRANCH  25  30
ATOM     27  C   UNL     1      -0.145  -1.470   3.933  0.00  0.00    +0.000 A 
ATOM     28  C   UNL     1      -1.475  -1.065   4.107  0.00  0.00    +0.000 A 
ATOM     29  C   UNL     1      -2.155  -1.295   5.309  0.00  0.00    +0.000 A 
ATOM     30  C   UNL     1      -1.546  -2.017   6.340  0.00  0.00    +0.000 A 
ATOM     31  C   UNL     1      -0.213  -2.414   6.152  0.00  0.00    +0.000 A 
ATOM     32  C   UNL     1       0.474  -2.152   4.969  0.00  0.00    +0.000 A 
BRANCH  27  36
ATOM     33  N   UNL     1       2.968  -0.198   1.423  0.00  0.00    +0.000 NA
ATOM     34  C   UNL     1       2.233   0.688   2.351  0.00  0.00    +0.000 C 
ATOM     35  C   UNL     1       0.746   0.327   2.602  0.00  0.00    +0.000 C 
ATOM     36  N   UNL     1       0.547  -1.117   2.796  0.00  0.00    +0.000 N 
ATOM     37  C   UNL     1       1.399  -2.081   2.084  0.00  0.00    +0.000 C 
ATOM     38  C   UNL     1       2.845  -1.585   1.921  0.00  0.00    +0.000 C 
BRANCH  33  40
ATOM     39  C   UNL     1       1.092   0.125  -0.332  0.00  0.00    +0.000 C 
ATOM     40  C   UNL     1       2.571  -0.045   0.011  0.00  0.00    +0.000 C 
ENDBRANCH  33  40
ENDBRANCH  27  36
ENDBRANCH  25  30
ENDBRANCH   1  25
TORSDOF 7
