REMARK  Name = Ingenol mebutate
REMARK  13 active torsions:
REMARK  status: ('A' for Active; 'I' for Inactive)
REMARK    1  A    between atoms: C_4  and  C_5
REMARK    2  A    between atoms: C_8  and  C_9
REMARK    3  A    between atoms: C_10  and  O_11
REMARK    4  A    between atoms: O_11  and  C_12
REMARK    5  A    between atoms: C_12  and  C_14
REMARK    6  A    between atoms: C_14  and  C_15
REMARK    7  A    between atoms: C_16  and  C_17
REMARK    8  A    between atoms: C_18  and  O_19
REMARK    9  A    between atoms: C_20  and  O_21
REMARK   10  A    between atoms: C_22  and  C_23
REMARK   11  A    between atoms: C_23  and  O_24
REMARK   12  A    between atoms: C_32  and  C_33
REMARK   13  A    between atoms: C_32  and  C_34
REMARK                            x       y       z     vdW  Elec       q    Type
REMARK                         _______ _______ _______ _____ _____    ______ ____
ROOT
ATOM      1  C   UNL     1       2.030  -0.136  -0.118  0.00  0.00    +0.000 C 
ATOM      2  C   UNL     1       2.546  -1.098   1.023  0.00  0.00    +0.000 C 
ATOM      3  C   UNL     1       3.985  -0.918   1.809  0.00  0.00    +0.000 C 
ATOM      4  C   UNL     1       4.474  -2.342   2.098  0.00  0.00    +0.000 C 
ATOM      5  C   UNL     1       5.225  -0.083   1.368  0.00  0.00    +0.000 C 
ATOM      6  C   UNL     1       6.536  -0.629   1.504  0.00  0.00    +0.000 C 
ATOM      7  C   UNL     1       7.002  -1.099   0.388  0.00  0.00    +0.000 C 
ATOM      8  C   UNL     1       8.118  -1.945   0.595  0.00  0.00    +0.000 C 
ATOM      9  C   UNL     1       6.140  -0.751  -0.724  0.00  0.00    +0.000 C 
ATOM     10  C   UNL     1       4.667   0.168   0.119  0.00  0.00    +0.000 C 
ATOM     11  C   UNL     1       4.013   1.777   1.486  0.00  0.00    +0.000 C 
ATOM     12  C   UNL     1       4.019   3.516   0.869  0.00  0.00    +0.000 C 
ATOM     13  C   UNL     1       4.009   3.380  -0.441  0.00  0.00    +0.000 C 
ATOM     14  C   UNL     1       4.131   1.976  -0.686  0.00  0.00    +0.000 C 
ATOM     15  C   UNL     1       5.615   1.310   0.424  0.00  0.00    +0.000 C 
ATOM     16  O   UNL     1       6.538   1.971   0.921  0.00  0.00    +0.000 OA
ATOM     17  C   UNL     1       2.526   1.259  -0.479  0.00  0.00    +0.000 C 
ATOM     18  C   UNL     1       2.386   0.062  -1.686  0.00  0.00    +0.000 C 
ATOM     19  C   UNL     1       3.676  -0.106  -2.709  0.00  0.00    +0.000 C 
ATOM     20  C   UNL     1       1.489  -0.758  -2.572  0.00  0.00    +0.000 C 
ENDROOT
BRANCH  10  21
ATOM     21  O   UNL     1       4.021  -1.074  -0.452  0.00  0.00    +0.000 OA
ATOM     22  H   UNL     1       4.300  -1.431  -1.320  0.00  0.00    +0.000 HD
ENDBRANCH  10  21
BRANCH  11  23
ATOM     23  O   UNL     1       2.947   1.762   2.494  0.00  0.00    +0.000 OA
ATOM     24  H   UNL     1       2.558   2.670   2.627  0.00  0.00    +0.000 HD
ENDBRANCH  11  23
BRANCH   9  25
ATOM     25  O   UNL     1       6.710  -0.458  -2.076  0.00  0.00    +0.000 OA
BRANCH  25  26
ATOM     26  C   UNL     1       7.801  -0.834  -2.856  0.00  0.00    +0.000 C 
ATOM     27  O   UNL     1       7.923  -0.258  -3.941  0.00  0.00    +0.000 OA
BRANCH  26  28
ATOM     28  C   UNL     1       8.902  -1.795  -2.419  0.00  0.00    +0.000 C 
ATOM     29  C   UNL     1       8.696  -2.960  -1.561  0.00  0.00    +0.000 C 
ATOM     30  C   UNL     1      10.222  -1.662  -2.634  0.00  0.00    +0.000 C 
ATOM     31  C   UNL     1      10.821  -0.925  -3.738  0.00  0.00    +0.000 C 
ENDBRANCH  26  28
ENDBRANCH  25  26
ENDBRANCH   9  25
BRANCH  12  32
ATOM     32  C   UNL     1       4.191   5.053   1.328  0.00  0.00    +0.000 C 
BRANCH  32  33
ATOM     33  O   UNL     1       4.110   5.952   0.152  0.00  0.00    +0.000 OA
ATOM     34  H   UNL     1       3.223   5.872  -0.243  0.00  0.00    +0.000 HD
ENDBRANCH  32  33
ENDBRANCH  12  32
TORSDOF 7
