REMARK  Name = Inositol
REMARK  6 active torsions:
REMARK  status: ('A' for Active; 'I' for Inactive)
REMARK    1  A    between atoms: O_1  and  C_2
REMARK    2  A    between atoms: C_3  and  O_4
REMARK    3  A    between atoms: C_5  and  O_6
REMARK    4  A    between atoms: C_7  and  O_8
REMARK    5  A    between atoms: C_9  and  O_10
REMARK    6  A    between atoms: C_11  and  O_12
REMARK                            x       y       z     vdW  Elec       q    Type
REMARK                         _______ _______ _______ _____ _____    ______ ____
ROOT
ATOM      1  C   UNL     1       2.537  -0.006   0.001  0.00  0.00    +0.000 C 
ATOM      2  C   UNL     1       3.012   1.043  -1.018  0.00  0.00    +0.000 C 
ATOM      3  C   UNL     1       2.603   0.684  -2.462  0.00  0.00    +0.000 C 
ATOM      4  C   UNL     1       3.067  -0.742  -2.826  0.00  0.00    +0.000 C 
ATOM      5  C   UNL     1       2.535  -1.766  -1.812  0.00  0.00    +0.000 C 
ATOM      6  C   UNL     1       3.001  -1.417  -0.391  0.00  0.00    +0.000 C 
ENDROOT
BRANCH   1   7
ATOM      7  O   UNL     1       3.033   0.343   1.297  0.00  0.00    +0.000 OA
ATOM      8  H   UNL     1       2.749   1.262   1.464  0.00  0.00    +0.000 HD
ENDBRANCH   1   7
BRANCH   2   9
ATOM      9  O   UNL     1       2.475   2.314  -0.618  0.00  0.00    +0.000 OA
ATOM     10  H   UNL     1       1.541   2.360  -0.879  0.00  0.00    +0.000 HD
ENDBRANCH   2   9
BRANCH   3  11
ATOM     11  O   UNL     1       3.127   1.649  -3.381  0.00  0.00    +0.000 OA
ATOM     12  H   UNL     1       4.091   1.559  -3.422  0.00  0.00    +0.000 HD
ENDBRANCH   3  11
BRANCH   4  13
ATOM     13  O   UNL     1       2.617  -1.090  -4.138  0.00  0.00    +0.000 OA
ATOM     14  H   UNL     1       1.658  -1.256  -4.089  0.00  0.00    +0.000 HD
ENDBRANCH   4  13
BRANCH   5  15
ATOM     15  O   UNL     1       1.093  -1.830  -1.872  0.00  0.00    +0.000 OA
ATOM     16  H   UNL     1       0.694  -0.972  -1.649  0.00  0.00    +0.000 HD
ENDBRANCH   5  15
BRANCH   6  17
ATOM     17  O   UNL     1       2.482  -2.388   0.524  0.00  0.00    +0.000 OA
ATOM     18  H   UNL     1       1.525  -2.462   0.366  0.00  0.00    +0.000 HD
ENDBRANCH   6  17
TORSDOF 6
