REMARK  Name = Iobenguane sulfate I-123
REMARK  6 active torsions:
REMARK  status: ('A' for Active; 'I' for Inactive)
REMARK    1  A    between atoms: O_1  and  S_2
REMARK    2  A    between atoms: S_2  and  O_3
REMARK    3  A    between atoms: N_9  and  C_10
REMARK    4  A    between atoms: C_10  and  C_11
REMARK    5  A    between atoms: N_21  and  C_22
REMARK    6  A    between atoms: C_22  and  C_23
REMARK                            x       y       z     vdW  Elec       q    Type
REMARK                         _______ _______ _______ _____ _____    ______ ____
ROOT
ATOM      1  S   UNL     1       3.339  -0.517   0.084  0.00  0.00    +0.000 S 
ATOM      2  O   UNL     1       3.501  -1.907  -0.424  0.00  0.00    +0.000 OA
ATOM      3  O   UNL     1       2.359   1.434  -0.313  0.00  0.00    +0.000 OA
ENDROOT
BRANCH   1   4
ATOM      4  O   UNL     1       1.359  -1.233   0.042  0.00  0.00    +0.000 OA
ATOM      5  H   UNL     1       0.775  -1.806   0.545  0.00  0.00    +0.000 HD
ENDBRANCH   1   4
BRANCH   1   6
ATOM      6  O   UNL     1       3.543  -0.010   2.197  0.00  0.00    +0.000 OA
ATOM      7  H   UNL     1       2.985  -0.734   2.534  0.00  0.00    +0.000 HD
ENDBRANCH   1   6
TORSDOF 2
REMARK  Name = Iobenguane sulfate I-123
REMARK  6 active torsions:
REMARK  status: ('A' for Active; 'I' for Inactive)
REMARK    1  A    between atoms: O_1  and  S_2
REMARK    2  A    between atoms: S_2  and  O_3
REMARK    3  A    between atoms: N_9  and  C_10
REMARK    4  A    between atoms: C_10  and  C_11
REMARK    5  A    between atoms: N_21  and  C_22
REMARK    6  A    between atoms: C_22  and  C_23
REMARK                            x       y       z     vdW  Elec       q    Type
REMARK                         _______ _______ _______ _____ _____    ______ ____
ROOT
ATOM      1  N   UNL     2       0.703   0.194  -1.163  0.00  0.00    +0.000 N 
ATOM      2  C   UNL     2       2.272   0.195  -1.077  0.00  0.00    +0.000 C 
ATOM      3  N   UNL     2       2.899  -0.559  -2.154  0.00  0.00    +0.000 NA
ATOM      4  N   UNL     2       3.520   1.144   0.593  0.00  0.00    +0.000 N 
ATOM      5  H   UNL     2       0.450  -0.779  -1.065  0.00  0.00    +0.000 HD
ATOM      6  H   UNL     2       0.291   0.160  -0.141  0.00  0.00    +0.000 HD
ATOM      7  H   UNL     2       2.363  -1.411  -2.029  0.00  0.00    +0.000 HD
ATOM      8  H   UNL     2       3.022   1.331   1.663  0.00  0.00    +0.000 HD
ENDROOT
BRANCH   4   9
ATOM      9  C   UNL     2       5.012   0.663   1.237  0.00  0.00    +0.000 C 
BRANCH   9  10
ATOM     10  C   UNL     2       5.333   1.496   2.342  0.00  0.00    +0.000 A 
ATOM     11  C   UNL     2       4.822   2.779   2.460  0.00  0.00    +0.000 A 
ATOM     12  C   UNL     2       5.325   3.553   3.450  0.00  0.00    +0.000 A 
ATOM     13  I   UNL     2       5.003   5.591   3.490  0.00  0.00    +0.000 I 
ATOM     14  C   UNL     2       6.076   2.932   4.424  0.00  0.00    +0.000 A 
ATOM     15  C   UNL     2       6.296   1.556   4.409  0.00  0.00    +0.000 A 
ATOM     16  C   UNL     2       6.046   0.839   3.294  0.00  0.00    +0.000 A 
ENDBRANCH   9  10
ENDBRANCH   4   9
TORSDOF 2
REMARK  Name = Iobenguane sulfate I-123
REMARK  6 active torsions:
REMARK  status: ('A' for Active; 'I' for Inactive)
REMARK    1  A    between atoms: O_1  and  S_2
REMARK    2  A    between atoms: S_2  and  O_3
REMARK    3  A    between atoms: N_9  and  C_10
REMARK    4  A    between atoms: C_10  and  C_11
REMARK    5  A    between atoms: N_21  and  C_22
REMARK    6  A    between atoms: C_22  and  C_23
REMARK                            x       y       z     vdW  Elec       q    Type
REMARK                         _______ _______ _______ _____ _____    ______ ____
ROOT
ATOM      1  N   UNL     3       0.793   0.947   0.837  0.00  0.00    +0.000 N 
ATOM      2  C   UNL     3       2.110   0.410   0.715  0.00  0.00    +0.000 C 
ATOM      3  N   UNL     3       2.323  -1.049   1.607  0.00  0.00    +0.000 NA
ATOM      4  N   UNL     3       3.627   0.931  -0.913  0.00  0.00    +0.000 N 
ATOM      5  H   UNL     3       0.518   0.032   1.292  0.00  0.00    +0.000 HD
ATOM      6  H   UNL     3       0.677   1.347  -0.374  0.00  0.00    +0.000 HD
ATOM      7  H   UNL     3       1.846  -1.883   1.511  0.00  0.00    +0.000 HD
ATOM      8  H   UNL     3       3.065   1.659  -1.544  0.00  0.00    +0.000 HD
ENDROOT
BRANCH   4   9
ATOM      9  C   UNL     3       5.023   1.122  -1.129  0.00  0.00    +0.000 C 
BRANCH   9  10
ATOM     10  C   UNL     3       5.318   2.134  -2.046  0.00  0.00    +0.000 A 
ATOM     11  C   UNL     3       5.247   3.460  -1.603  0.00  0.00    +0.000 A 
ATOM     12  C   UNL     3       5.216   4.404  -2.555  0.00  0.00    +0.000 A 
ATOM     13  I   UNL     3       4.751   6.362  -2.123  0.00  0.00    +0.000 I 
ATOM     14  C   UNL     3       5.522   4.002  -3.835  0.00  0.00    +0.000 A 
ATOM     15  C   UNL     3       5.845   2.678  -4.141  0.00  0.00    +0.000 A 
ATOM     16  C   UNL     3       5.595   1.685  -3.274  0.00  0.00    +0.000 A 
ENDBRANCH   9  10
ENDBRANCH   4   9
TORSDOF 2
