REMARK  Name = Iobenguane
REMARK  2 active torsions:
REMARK  status: ('A' for Active; 'I' for Inactive)
REMARK    1  A    between atoms: N_4  and  C_5
REMARK    2  A    between atoms: C_5  and  C_6
REMARK                            x       y       z     vdW  Elec       q    Type
REMARK                         _______ _______ _______ _____ _____    ______ ____
ROOT
ATOM      1  N   UNL     1       1.094   0.029   0.066  0.00  0.00    +0.000 N 
ATOM      2  C   UNL     1       2.434  -0.013   0.040  0.00  0.00    +0.000 C 
ATOM      3  N   UNL     1       3.006   1.167   0.324  0.00  0.00    +0.000 N 
ATOM      4  N   UNL     1       3.014  -1.125  -0.222  0.00  0.00    +0.000 NA
ATOM      5  H   UNL     1       0.553   0.861   0.227  0.00  0.00    +0.000 HD
ATOM      6  H   UNL     1       0.604  -0.833  -0.138  0.00  0.00    +0.000 HD
ATOM      7  H   UNL     1       2.468   2.006   0.466  0.00  0.00    +0.000 HD
ATOM      8  H   UNL     1       4.011   1.258   0.310  0.00  0.00    +0.000 HD
ENDROOT
BRANCH   4   9
ATOM      9  C   UNL     1       4.476  -1.170  -0.216  0.00  0.00    +0.000 C 
BRANCH   9  10
ATOM     10  C   UNL     1       4.976  -2.567  -0.498  0.00  0.00    +0.000 A 
ATOM     11  C   UNL     1       4.244  -3.671  -0.037  0.00  0.00    +0.000 A 
ATOM     12  C   UNL     1       4.670  -4.967  -0.309  0.00  0.00    +0.000 A 
ATOM     13  I   UNL     1       3.506  -6.570   0.313  0.00  0.00    +0.000 I 
ATOM     14  C   UNL     1       5.854  -5.181  -1.010  0.00  0.00    +0.000 A 
ATOM     15  C   UNL     1       6.611  -4.090  -1.443  0.00  0.00    +0.000 A 
ATOM     16  C   UNL     1       6.176  -2.786  -1.188  0.00  0.00    +0.000 A 
ENDBRANCH   9  10
ENDBRANCH   4   9
TORSDOF 2
