REMARK  Name = Iocetamic acid
REMARK  8 active torsions:
REMARK  status: ('A' for Active; 'I' for Inactive)
REMARK    1  A    between atoms: C_1  and  C_2
REMARK    2  A    between atoms: C_2  and  C_3
REMARK    3  A    between atoms: C_2  and  C_18
REMARK    4  A    between atoms: C_3  and  N_4
REMARK    5  A    between atoms: N_4  and  C_8
REMARK    6  A    between atoms: C_5  and  C_6
REMARK    7  A    between atoms: C_14  and  N_15
REMARK    8  A    between atoms: C_18  and  O_19
REMARK                            x       y       z     vdW  Elec       q    Type
REMARK                         _______ _______ _______ _____ _____    ______ ____
ROOT
ATOM      1  C   UNL     1       2.828   0.301   3.831  0.00  0.00    +0.000 A 
ATOM      2  C   UNL     1       4.165   0.032   4.242  0.00  0.00    +0.000 A 
ATOM      3  I   UNL     1       5.934  -0.047   3.051  0.00  0.00    +0.000 I 
ATOM      4  C   UNL     1       4.492  -0.129   5.602  0.00  0.00    +0.000 A 
ATOM      5  C   UNL     1       3.518  -0.021   6.588  0.00  0.00    +0.000 A 
ATOM      6  I   UNL     1       4.146  -0.170   8.588  0.00  0.00    +0.000 I 
ATOM      7  C   UNL     1       2.174   0.158   6.248  0.00  0.00    +0.000 A 
ATOM      8  C   UNL     1       1.845   0.296   4.870  0.00  0.00    +0.000 A 
ATOM      9  I   UNL     1      -0.312   0.244   4.451  0.00  0.00    +0.000 I 
ENDROOT
BRANCH   1  10
ATOM     10  N   UNL     1       2.485   0.624   2.455  0.00  0.00    +0.000 N 
ATOM     11  C   UNL     1       1.901   1.851   2.079  0.00  0.00    +0.000 C 
ATOM     12  C   UNL     1       1.364   2.831   3.083  0.00  0.00    +0.000 C 
ATOM     13  O   UNL     1       1.751   2.213   0.905  0.00  0.00    +0.000 OA
BRANCH  10  14
ATOM     14  C   UNL     1       2.896  -0.378   1.414  0.00  0.00    +0.000 C 
BRANCH  14  16
ATOM     15  C   UNL     1       0.855  -0.227  -0.025  0.00  0.00    +0.000 C 
ATOM     16  C   UNL     1       2.380  -0.166  -0.016  0.00  0.00    +0.000 C 
BRANCH  16  17
ATOM     17  C   UNL     1       3.039  -1.143  -0.974  0.00  0.00    +0.000 C 
ATOM     18  O   UNL     1       4.261  -1.264  -1.071  0.00  0.00    +0.000 OA
BRANCH  17  19
ATOM     19  O   UNL     1       2.219  -1.864  -1.761  0.00  0.00    +0.000 OA
ATOM     20  H   UNL     1       1.265  -1.690  -1.676  0.00  0.00    +0.000 HD
ENDBRANCH  17  19
ENDBRANCH  16  17
ENDBRANCH  14  16
ENDBRANCH  10  14
ENDBRANCH   1  10
BRANCH   7  21
ATOM     21  N   UNL     1       1.219   0.386   7.248  0.00  0.00    +0.000 N 
ATOM     22  H   UNL     1       1.426   0.051   8.184  0.00  0.00    +0.000 HD
ATOM     23  H   UNL     1       0.243   0.399   6.973  0.00  0.00    +0.000 HD
ENDBRANCH   7  21
TORSDOF 6
