REMARK  Name = Iodide I-123
REMARK  0 active torsions:
REMARK  status: ('A' for Active; 'I' for Inactive)
REMARK                            x       y       z     vdW  Elec       q    Type
REMARK                         _______ _______ _______ _____ _____    ______ ____
ROOT
ATOM      1  I   UNL     1       0.950  -0.074  -0.044  0.00  0.00    +0.000 I 
ENDROOT
TORSDOF 0
