REMARK  Name = Iodine
REMARK  0 active torsions:
REMARK  status: ('A' for Active; 'I' for Inactive)
REMARK                            x       y       z     vdW  Elec       q    Type
REMARK                         _______ _______ _______ _____ _____    ______ ____
ROOT
ATOM      1  I   UNL     1       1.061  -0.100  -0.006  0.00  0.00    +0.000 I 
ATOM      2  I   UNL     1       3.713  -0.100  -0.006  0.00  0.00    +0.000 I 
ENDROOT
TORSDOF 0
