REMARK  Name = Iodoform
REMARK  0 active torsions:
REMARK  status: ('A' for Active; 'I' for Inactive)
REMARK                            x       y       z     vdW  Elec       q    Type
REMARK                         _______ _______ _______ _____ _____    ______ ____
ROOT
ATOM      1  C   UNL     1       2.113  -0.024   0.067  0.00  0.00    +0.000 C 
ATOM      2  I   UNL     1       2.883  -0.754  -1.758  0.00  0.00    +0.000 I 
ATOM      3  I   UNL     1       2.883   1.922   0.347  0.00  0.00    +0.000 I 
ATOM      4  I   UNL     1       2.883  -1.239   1.613  0.00  0.00    +0.000 I 
ENDROOT
TORSDOF 0
