REMARK  Name = Iodohippurate sodium I-131
REMARK  3 active torsions:
REMARK  status: ('A' for Active; 'I' for Inactive)
REMARK    1  A    between atoms: C_3  and  C_5
REMARK    2  A    between atoms: C_5  and  N_6
REMARK    3  A    between atoms: C_7  and  C_9
REMARK                            x       y       z     vdW  Elec       q    Type
REMARK                         _______ _______ _______ _____ _____    ______ ____
ROOT
ATOM      1 NA   UNL     1       0.559  -1.324  -0.428  0.00  0.00    +0.000 Na
ENDROOT
TORSDOF 0
REMARK  Name = Iodohippurate sodium I-131
REMARK  3 active torsions:
REMARK  status: ('A' for Active; 'I' for Inactive)
REMARK    1  A    between atoms: C_3  and  C_5
REMARK    2  A    between atoms: C_5  and  N_6
REMARK    3  A    between atoms: C_7  and  C_9
REMARK                            x       y       z     vdW  Elec       q    Type
REMARK                         _______ _______ _______ _____ _____    ______ ____
ROOT
ATOM      1  N   UNL     2       4.765   0.888   0.840  0.00  0.00    +0.000 N 
ATOM      2  C   UNL     2       5.654   1.772   1.406  0.00  0.00    +0.000 C 
ATOM      3  O   UNL     2       5.315   2.715   2.119  0.00  0.00    +0.000 OA
ATOM      4  H   UNL     2       5.068   0.140   0.221  0.00  0.00    +0.000 HD
ENDROOT
BRANCH   2   5
ATOM      5  C   UNL     2       7.091   1.509   1.178  0.00  0.00    +0.000 A 
ATOM      6  C   UNL     2       7.655   1.237  -0.075  0.00  0.00    +0.000 A 
ATOM      7  I   UNL     2       6.591   1.216  -1.888  0.00  0.00    +0.000 I 
ATOM      8  C   UNL     2       9.026   0.966  -0.167  0.00  0.00    +0.000 A 
ATOM      9  C   UNL     2       9.803   0.853   0.987  0.00  0.00    +0.000 A 
ATOM     10  C   UNL     2       9.249   1.139   2.231  0.00  0.00    +0.000 A 
ATOM     11  C   UNL     2       7.915   1.534   2.318  0.00  0.00    +0.000 A 
ENDBRANCH   2   5
BRANCH   1  12
ATOM     12  C   UNL     2       3.338   1.149   0.918  0.00  0.00    +0.000 C 
BRANCH  12  14
ATOM     13  O   UNL     2       1.168   0.530   0.152  0.00  0.00    +0.000 OA
ATOM     14  C   UNL     2       2.408   0.248   0.140  0.00  0.00    +0.000 C 
ATOM     15  O   UNL     2       2.829  -0.816  -0.399  0.00  0.00    +0.000 OA
ENDBRANCH  12  14
ENDBRANCH   1  12
TORSDOF 3
