REMARK  Name = Iofetamine I-123
REMARK  7 active torsions:
REMARK  status: ('A' for Active; 'I' for Inactive)
REMARK    1  A    between atoms: C_1  and  C_2
REMARK    2  A    between atoms: C_2  and  C_3
REMARK    3  A    between atoms: C_2  and  N_4
REMARK    4  A    between atoms: N_4  and  C_5
REMARK    5  A    between atoms: C_5  and  C_6
REMARK    6  A    between atoms: C_5  and  C_7
REMARK    7  A    between atoms: C_7  and  C_8
REMARK                            x       y       z     vdW  Elec       q    Type
REMARK                         _______ _______ _______ _____ _____    ______ ____
ROOT
ATOM      1  C   UNL     1       5.094  -1.613  -2.297  0.00  0.00    +0.000 C 
ENDROOT
BRANCH   1   2
ATOM      2  C   UNL     1       6.617  -1.556  -2.380  0.00  0.00    +0.000 A 
ATOM      3  C   UNL     1       7.357  -0.513  -1.791  0.00  0.00    +0.000 A 
ATOM      4  C   UNL     1       8.740  -0.457  -1.864  0.00  0.00    +0.000 A 
ATOM      5  C   UNL     1       9.417  -1.472  -2.534  0.00  0.00    +0.000 A 
ATOM      6  I   UNL     1      11.465  -1.300  -2.799  0.00  0.00    +0.000 I 
ATOM      7  C   UNL     1       8.717  -2.555  -3.060  0.00  0.00    +0.000 A 
ATOM      8  C   UNL     1       7.321  -2.592  -3.010  0.00  0.00    +0.000 A 
ENDBRANCH   1   2
BRANCH   1   9
ATOM      9  C   UNL     1       4.548  -0.842  -1.066  0.00  0.00    +0.000 C 
ATOM     10  C   UNL     1       5.182  -1.492   0.178  0.00  0.00    +0.000 C 
BRANCH   9  11
ATOM     11  N   UNL     1       3.071  -0.819  -1.018  0.00  0.00    +0.000 NA
ATOM     12  H   UNL     1       2.730  -0.491  -1.927  0.00  0.00    +0.000 HD
BRANCH  11  14
ATOM     13  C   UNL     1       0.985   0.090  -0.115  0.00  0.00    +0.000 C 
ATOM     14  C   UNL     1       2.509   0.074   0.021  0.00  0.00    +0.000 C 
ATOM     15  C   UNL     1       2.799  -0.351   1.462  0.00  0.00    +0.000 C 
ENDBRANCH  11  14
ENDBRANCH   9  11
ENDBRANCH   1   9
TORSDOF 4
