REMARK  Name = Ioflupane I-123
REMARK  7 active torsions:
REMARK  status: ('A' for Active; 'I' for Inactive)
REMARK    1  A    between atoms: C_7  and  C_17
REMARK    2  A    between atoms: C_8  and  C_10
REMARK    3  A    between atoms: C_17  and  O_19
REMARK    4  A    between atoms: O_19  and  C_20
REMARK    5  A    between atoms: N_21  and  C_22
REMARK    6  A    between atoms: C_22  and  C_23
REMARK    7  A    between atoms: C_23  and  C_24
REMARK                            x       y       z     vdW  Elec       q    Type
REMARK                         _______ _______ _______ _____ _____    ______ ____
ROOT
ATOM      1  C   UNL     1       2.070  -0.085  -0.036  0.00  0.00    +0.000 C 
ATOM      2  C   UNL     1       2.699   0.829  -1.098  0.00  0.00    +0.000 C 
ATOM      3  C   UNL     1       4.050   1.250  -0.495  0.00  0.00    +0.000 C 
ATOM      4  C   UNL     1       4.116   0.544   0.887  0.00  0.00    +0.000 C 
ATOM      5  C   UNL     1       4.775  -0.871   0.815  0.00  0.00    +0.000 C 
ATOM      6  C   UNL     1       3.982  -1.725  -0.223  0.00  0.00    +0.000 C 
ATOM      7  C   UNL     1       2.456  -1.584  -0.227  0.00  0.00    +0.000 C 
ATOM      8  N   UNL     1       2.664   0.484   1.193  0.00  0.00    +0.000 NA
ENDROOT
BRANCH   6   9
ATOM      9  C   UNL     1       4.634  -3.059  -0.500  0.00  0.00    +0.000 A 
ATOM     10  C   UNL     1       4.643  -4.215   0.299  0.00  0.00    +0.000 A 
ATOM     11  C   UNL     1       5.675  -5.151   0.135  0.00  0.00    +0.000 A 
ATOM     12  C   UNL     1       6.579  -5.004  -0.917  0.00  0.00    +0.000 A 
ATOM     13  I   UNL     1       8.215  -6.249  -1.140  0.00  0.00    +0.000 I 
ATOM     14  C   UNL     1       6.441  -3.966  -1.824  0.00  0.00    +0.000 A 
ATOM     15  C   UNL     1       5.505  -2.990  -1.588  0.00  0.00    +0.000 A 
ENDBRANCH   6   9
BRANCH   5  16
ATOM     16  C   UNL     1       4.901  -1.614   2.162  0.00  0.00    +0.000 C 
ATOM     17  O   UNL     1       4.290  -2.631   2.450  0.00  0.00    +0.000 OA
BRANCH  16  18
ATOM     18  O   UNL     1       5.683  -0.987   3.082  0.00  0.00    +0.000 OA
ATOM     19  C   UNL     1       5.592  -1.672   4.345  0.00  0.00    +0.000 C 
ENDBRANCH  16  18
ENDBRANCH   5  16
BRANCH   8  20
ATOM     20  C   UNL     1       2.384  -0.312   2.379  0.00  0.00    +0.000 C 
BRANCH  20  21
ATOM     21  C   UNL     1       0.940  -0.544   2.739  0.00  0.00    +0.000 C 
BRANCH  21  22
ATOM     22  C   UNL     1       0.904  -1.601   3.833  0.00  0.00    +0.000 C 
ATOM     23  F   UNL     1      -0.388  -1.818   4.179  0.00  0.00    +0.000 F 
ENDBRANCH  21  22
ENDBRANCH  20  21
ENDBRANCH   8  20
TORSDOF 6
