REMARK  Name = Iopanoic acid
REMARK  7 active torsions:
REMARK  status: ('A' for Active; 'I' for Inactive)
REMARK    1  A    between atoms: C_1  and  C_2
REMARK    2  A    between atoms: C_2  and  C_3
REMARK    3  A    between atoms: C_3  and  C_4
REMARK    4  A    between atoms: C_3  and  C_15
REMARK    5  A    between atoms: C_4  and  C_5
REMARK    6  A    between atoms: C_8  and  N_9
REMARK    7  A    between atoms: C_15  and  O_16
REMARK                            x       y       z     vdW  Elec       q    Type
REMARK                         _______ _______ _______ _____ _____    ______ ____
ROOT
ATOM      1  C   UNL     1       0.983   2.190   1.396  0.00  0.00    +0.000 A 
ATOM      2  C   UNL     1       0.282   3.402   1.148  0.00  0.00    +0.000 A 
ATOM      3  I   UNL     1       1.315   5.281   0.996  0.00  0.00    +0.000 I 
ATOM      4  C   UNL     1      -1.142   3.457   1.095  0.00  0.00    +0.000 A 
ATOM      5  C   UNL     1      -1.831   2.241   1.023  0.00  0.00    +0.000 A 
ATOM      6  I   UNL     1      -3.884   2.134   0.596  0.00  0.00    +0.000 I 
ATOM      7  C   UNL     1      -1.181   1.062   1.359  0.00  0.00    +0.000 A 
ATOM      8  C   UNL     1       0.160   1.104   1.780  0.00  0.00    +0.000 A 
ATOM      9  I   UNL     1       0.854  -0.725   2.739  0.00  0.00    +0.000 I 
ENDROOT
BRANCH   4  10
ATOM     10  N   UNL     1      -1.827   4.673   0.899  0.00  0.00    +0.000 N 
ATOM     11  H   UNL     1      -1.340   5.475   1.294  0.00  0.00    +0.000 HD
ATOM     12  H   UNL     1      -2.811   4.637   1.157  0.00  0.00    +0.000 HD
ENDBRANCH   4  10
BRANCH   1  13
ATOM     13  C   UNL     1       2.497   2.036   1.145  0.00  0.00    +0.000 C 
BRANCH  13  14
ATOM     14  C   UNL     1       3.047   1.337  -0.170  0.00  0.00    +0.000 C 
BRANCH  14  16
ATOM     15  C   UNL     1       1.158  -0.256  -0.772  0.00  0.00    +0.000 C 
ATOM     16  C   UNL     1       2.615  -0.119  -0.416  0.00  0.00    +0.000 C 
ENDBRANCH  14  16
BRANCH  14  17
ATOM     17  C   UNL     1       4.586   1.451  -0.159  0.00  0.00    +0.000 C 
ATOM     18  O   UNL     1       5.163   2.514  -0.200  0.00  0.00    +0.000 OA
BRANCH  17  19
ATOM     19  O   UNL     1       5.292   0.295  -0.075  0.00  0.00    +0.000 OA
ATOM     20  H   UNL     1       4.821  -0.554  -0.034  0.00  0.00    +0.000 HD
ENDBRANCH  17  19
ENDBRANCH  14  17
ENDBRANCH  13  14
ENDBRANCH   1  13
TORSDOF 6
