REMARK  Name = Iophendylate
REMARK  14 active torsions:
REMARK  status: ('A' for Active; 'I' for Inactive)
REMARK    1  A    between atoms: C_1  and  C_2
REMARK    2  A    between atoms: C_2  and  O_3
REMARK    3  A    between atoms: O_3  and  C_4
REMARK    4  A    between atoms: C_4  and  C_6
REMARK    5  A    between atoms: C_6  and  C_7
REMARK    6  A    between atoms: C_7  and  C_8
REMARK    7  A    between atoms: C_8  and  C_9
REMARK    8  A    between atoms: C_9  and  C_10
REMARK    9  A    between atoms: C_10  and  C_11
REMARK   10  A    between atoms: C_11  and  C_12
REMARK   11  A    between atoms: C_12  and  C_13
REMARK   12  A    between atoms: C_13  and  C_14
REMARK   13  A    between atoms: C_14  and  C_15
REMARK   14  A    between atoms: C_14  and  C_16
REMARK                            x       y       z     vdW  Elec       q    Type
REMARK                         _______ _______ _______ _____ _____    ______ ____
ROOT
ATOM      1  C   UNL     1      10.462  -4.463  -3.782  0.00  0.00    +0.000 C 
ENDROOT
BRANCH   1   2
ATOM      2  C   UNL     1       8.942  -4.459  -3.794  0.00  0.00    +0.000 C 
BRANCH   2   3
ATOM      3  C   UNL     1       8.417  -3.388  -2.857  0.00  0.00    +0.000 C 
BRANCH   3   4
ATOM      4  C   UNL     1       6.893  -3.384  -2.856  0.00  0.00    +0.000 C 
BRANCH   4   5
ATOM      5  C   UNL     1       6.375  -2.311  -1.910  0.00  0.00    +0.000 C 
BRANCH   5   6
ATOM      6  C   UNL     1       4.847  -2.259  -1.864  0.00  0.00    +0.000 C 
BRANCH   6   7
ATOM      7  C   UNL     1       4.393  -1.176  -0.909  0.00  0.00    +0.000 C 
ATOM      8  O   UNL     1       5.154  -0.453  -0.270  0.00  0.00    +0.000 OA
BRANCH   7   9
ATOM      9  O   UNL     1       3.032  -1.104  -0.845  0.00  0.00    +0.000 OA
BRANCH   9  11
ATOM     10  C   UNL     1       1.042  -0.070   0.067  0.00  0.00    +0.000 C 
ATOM     11  C   UNL     1       2.560  -0.085   0.054  0.00  0.00    +0.000 C 
ENDBRANCH   9  11
ENDBRANCH   7   9
ENDBRANCH   6   7
ENDBRANCH   5   6
ENDBRANCH   4   5
ENDBRANCH   3   4
ENDBRANCH   2   3
ENDBRANCH   1   2
BRANCH   1  12
ATOM     12  C   UNL     1      10.962  -5.535  -4.729  0.00  0.00    +0.000 C 
BRANCH  12  13
ATOM     13  C   UNL     1      12.481  -5.551  -4.768  0.00  0.00    +0.000 C 
BRANCH  13  14
ATOM     14  C   UNL     1      13.016  -6.591  -5.762  0.00  0.00    +0.000 C 
ATOM     15  C   UNL     1      12.395  -6.489  -7.158  0.00  0.00    +0.000 C 
BRANCH  14  16
ATOM     16  C   UNL     1      14.536  -6.533  -5.787  0.00  0.00    +0.000 A 
ATOM     17  C   UNL     1      15.219  -7.553  -5.078  0.00  0.00    +0.000 A 
ATOM     18  C   UNL     1      16.614  -7.596  -5.029  0.00  0.00    +0.000 A 
ATOM     19  C   UNL     1      17.357  -6.623  -5.681  0.00  0.00    +0.000 A 
ATOM     20  C   UNL     1      16.712  -5.604  -6.370  0.00  0.00    +0.000 A 
ATOM     21  C   UNL     1      15.316  -5.538  -6.417  0.00  0.00    +0.000 A 
ATOM     22  I   UNL     1      14.640  -3.803  -7.436  0.00  0.00    +0.000 I 
ENDBRANCH  14  16
ENDBRANCH  13  14
ENDBRANCH  12  13
ENDBRANCH   1  12
TORSDOF 12
