REMARK  Name = Iopodic acid
REMARK  7 active torsions:
REMARK  status: ('A' for Active; 'I' for Inactive)
REMARK    1  A    between atoms: C_1  and  N_2
REMARK    2  A    between atoms: N_2  and  C_3
REMARK    3  A    between atoms: N_5  and  C_6
REMARK    4  A    between atoms: C_12  and  C_13
REMARK    5  A    between atoms: C_13  and  C_14
REMARK    6  A    between atoms: C_14  and  C_15
REMARK    7  A    between atoms: C_15  and  O_16
REMARK                            x       y       z     vdW  Elec       q    Type
REMARK                         _______ _______ _______ _____ _____    ______ ____
ROOT
ATOM      1  C   UNL     1       5.106   1.715  -1.830  0.00  0.00    +0.000 A 
ATOM      2  C   UNL     1       4.835   3.035  -2.212  0.00  0.00    +0.000 A 
ATOM      3  I   UNL     1       3.264   4.184  -1.403  0.00  0.00    +0.000 I 
ATOM      4  C   UNL     1       5.680   3.708  -3.098  0.00  0.00    +0.000 A 
ATOM      5  C   UNL     1       6.843   3.095  -3.581  0.00  0.00    +0.000 A 
ATOM      6  I   UNL     1       8.094   4.388  -4.732  0.00  0.00    +0.000 I 
ATOM      7  C   UNL     1       7.177   1.752  -3.262  0.00  0.00    +0.000 A 
ATOM      8  C   UNL     1       6.269   1.083  -2.376  0.00  0.00    +0.000 A 
ATOM      9  I   UNL     1       6.473  -1.032  -1.591  0.00  0.00    +0.000 I 
ENDROOT
BRANCH   1  14
ATOM     10  C   UNL     1       0.989   0.063   0.046  0.00  0.00    +0.000 C 
ATOM     11  N   UNL     1       2.436   0.072   0.035  0.00  0.00    +0.000 N 
ATOM     12  C   UNL     1       3.140  -0.711   1.040  0.00  0.00    +0.000 C 
ATOM     13  C   UNL     1       3.141   0.809  -0.884  0.00  0.00    +0.000 C 
ATOM     14  N   UNL     1       4.407   1.034  -0.813  0.00  0.00    +0.000 NA
ENDBRANCH   1  14
BRANCH   7  15
ATOM     15  C   UNL     1       8.458   1.202  -3.884  0.00  0.00    +0.000 C 
BRANCH  15  16
ATOM     16  C   UNL     1       8.816  -0.223  -3.562  0.00  0.00    +0.000 C 
BRANCH  16  17
ATOM     17  C   UNL     1      10.036  -0.873  -4.123  0.00  0.00    +0.000 C 
ATOM     18  O   UNL     1      10.310  -2.041  -3.848  0.00  0.00    +0.000 OA
BRANCH  17  19
ATOM     19  O   UNL     1      10.810  -0.134  -4.926  0.00  0.00    +0.000 OA
ATOM     20  H   UNL     1      10.517   0.780  -5.082  0.00  0.00    +0.000 HD
ENDBRANCH  17  19
ENDBRANCH  16  17
ENDBRANCH  15  16
ENDBRANCH   7  15
TORSDOF 5
