REMARK  Name = Iothalamic acid
REMARK  6 active torsions:
REMARK  status: ('A' for Active; 'I' for Inactive)
REMARK    1  A    between atoms: C_1  and  N_2
REMARK    2  A    between atoms: C_3  and  C_5
REMARK    3  A    between atoms: C_8  and  C_9
REMARK    4  A    between atoms: C_9  and  O_10
REMARK    5  A    between atoms: C_14  and  N_15
REMARK    6  A    between atoms: C_16  and  C_17
REMARK                            x       y       z     vdW  Elec       q    Type
REMARK                         _______ _______ _______ _____ _____    ______ ____
ROOT
ATOM      1  C   UNL     1       4.642   0.097  -1.200  0.00  0.00    +0.000 A 
ATOM      2  C   UNL     1       5.472  -0.829  -0.525  0.00  0.00    +0.000 A 
ATOM      3  I   UNL     1       4.368  -2.512   0.401  0.00  0.00    +0.000 I 
ATOM      4  C   UNL     1       6.900  -0.743  -0.563  0.00  0.00    +0.000 A 
ATOM      5  C   UNL     1       7.450   0.311  -1.381  0.00  0.00    +0.000 A 
ATOM      6  I   UNL     1       9.658   0.425  -1.731  0.00  0.00    +0.000 I 
ATOM      7  C   UNL     1       6.649   1.311  -2.102  0.00  0.00    +0.000 A 
ATOM      8  C   UNL     1       5.201   1.144  -1.982  0.00  0.00    +0.000 A 
ATOM      9  I   UNL     1       3.270   2.400  -2.930  0.00  0.00    +0.000 I 
ENDROOT
BRANCH   1  12
ATOM     10  C   UNL     1       1.064   0.088  -0.005  0.00  0.00    +0.000 C 
ATOM     11  N   UNL     1       2.504   0.167  -0.015  0.00  0.00    +0.000 N 
ATOM     12  C   UNL     1       3.165  -0.073  -1.201  0.00  0.00    +0.000 C 
ATOM     13  O   UNL     1       2.596  -0.386  -2.241  0.00  0.00    +0.000 OA
ATOM     14  H   UNL     1       3.004   0.012   0.852  0.00  0.00    +0.000 HD
ENDBRANCH   1  12
BRANCH   7  15
ATOM     15  N   UNL     1       7.469   2.311  -2.798  0.00  0.00    +0.000 N 
ATOM     16  C   UNL     1       7.223   3.456  -3.526  0.00  0.00    +0.000 C 
ATOM     17  C   UNL     1       5.828   3.827  -3.664  0.00  0.00    +0.000 C 
ATOM     18  O   UNL     1       8.112   4.142  -4.025  0.00  0.00    +0.000 OA
ATOM     19  H   UNL     1       8.481   2.195  -2.727  0.00  0.00    +0.000 HD
ENDBRANCH   7  15
BRANCH   4  20
ATOM     20  C   UNL     1       7.704  -1.741   0.273  0.00  0.00    +0.000 C 
ATOM     21  O   UNL     1       7.180  -2.587   1.000  0.00  0.00    +0.000 OA
BRANCH  20  22
ATOM     22  O   UNL     1       9.040  -1.713   0.302  0.00  0.00    +0.000 OA
ATOM     23  H   UNL     1       9.508  -1.059  -0.242  0.00  0.00    +0.000 HD
ENDBRANCH  20  22
ENDBRANCH   4  20
TORSDOF 4
