REMARK  Name = Ioxitalamic acid
REMARK  8 active torsions:
REMARK  status: ('A' for Active; 'I' for Inactive)
REMARK    1  A    between atoms: C_1  and  C_2
REMARK    2  A    between atoms: N_4  and  C_5
REMARK    3  A    between atoms: C_8  and  C_9
REMARK    4  A    between atoms: C_9  and  O_10
REMARK    5  A    between atoms: C_14  and  C_15
REMARK    6  A    between atoms: N_17  and  C_18
REMARK    7  A    between atoms: C_18  and  C_19
REMARK    8  A    between atoms: C_19  and  O_20
REMARK                            x       y       z     vdW  Elec       q    Type
REMARK                         _______ _______ _______ _____ _____    ______ ____
ROOT
ATOM      1  C   UNL     1       4.729   1.269  -0.086  0.00  0.00    +0.000 A 
ATOM      2  C   UNL     1       5.507   0.369  -0.870  0.00  0.00    +0.000 A 
ATOM      3  I   UNL     1       4.358  -0.712  -2.501  0.00  0.00    +0.000 I 
ATOM      4  C   UNL     1       6.938   0.367  -0.854  0.00  0.00    +0.000 A 
ATOM      5  C   UNL     1       7.572   1.389  -0.054  0.00  0.00    +0.000 A 
ATOM      6  I   UNL     1       9.803   1.678  -0.296  0.00  0.00    +0.000 I 
ATOM      7  C   UNL     1       6.833   2.339   0.765  0.00  0.00    +0.000 A 
ATOM      8  C   UNL     1       5.400   2.258   0.700  0.00  0.00    +0.000 A 
ATOM      9  I   UNL     1       4.028   3.597   1.759  0.00  0.00    +0.000 I 
ENDROOT
BRANCH   1  13
ATOM     10  C   UNL     1       1.079   0.152   0.079  0.00  0.00    +0.000 C 
ATOM     11  C   UNL     1       2.585   0.054   0.175  0.00  0.00    +0.000 C 
ATOM     12  O   UNL     1       3.120  -0.994   0.526  0.00  0.00    +0.000 OA
ATOM     13  N   UNL     1       3.286   1.224  -0.115  0.00  0.00    +0.000 N 
ATOM     14  H   UNL     1       2.791   2.089   0.084  0.00  0.00    +0.000 HD
ENDBRANCH   1  13
BRANCH   7  15
ATOM     15  C   UNL     1       7.607   3.332   1.666  0.00  0.00    +0.000 C 
ATOM     16  O   UNL     1       8.828   3.354   1.760  0.00  0.00    +0.000 OA
ATOM     17  N   UNL     1       6.933   4.233   2.449  0.00  0.00    +0.000 N 
ATOM     18  H   UNL     1       5.927   4.238   2.462  0.00  0.00    +0.000 HD
BRANCH  17  19
ATOM     19  C   UNL     1       7.627   5.200   3.289  0.00  0.00    +0.000 C 
BRANCH  19  20
ATOM     20  C   UNL     1       6.653   6.074   4.072  0.00  0.00    +0.000 C 
BRANCH  20  21
ATOM     21  O   UNL     1       7.335   7.019   4.883  0.00  0.00    +0.000 OA
ATOM     22  H   UNL     1       7.906   6.526   5.497  0.00  0.00    +0.000 HD
ENDBRANCH  20  21
ENDBRANCH  19  20
ENDBRANCH  17  19
ENDBRANCH   7  15
BRANCH   4  23
ATOM     23  C   UNL     1       7.664  -0.724  -1.644  0.00  0.00    +0.000 C 
ATOM     24  O   UNL     1       7.103  -1.610  -2.273  0.00  0.00    +0.000 OA
BRANCH  23  25
ATOM     25  O   UNL     1       9.002  -0.790  -1.632  0.00  0.00    +0.000 OA
ATOM     26  H   UNL     1       9.475  -0.116  -1.118  0.00  0.00    +0.000 HD
ENDBRANCH  23  25
ENDBRANCH   4  23
TORSDOF 7
