REMARK  Name = Ipratropium
REMARK  10 active torsions:
REMARK  status: ('A' for Active; 'I' for Inactive)
REMARK    1  A    between atoms: C_8  and  O_10
REMARK    2  A    between atoms: O_10  and  C_11
REMARK    3  A    between atoms: C_11  and  C_13
REMARK    4  A    between atoms: C_13  and  C_14
REMARK    5  A    between atoms: C_13  and  C_16
REMARK    6  A    between atoms: C_14  and  O_15
REMARK    7  A    between atoms: N_22  and  C_23
REMARK    8  A    between atoms: N_22  and  C_24
REMARK    9  A    between atoms: C_24  and  C_25
REMARK   10  A    between atoms: C_24  and  C_26
REMARK                            x       y       z     vdW  Elec       q    Type
REMARK                         _______ _______ _______ _____ _____    ______ ____
ROOT
ATOM      1  O   UNL     1       4.470  -2.170  -1.373  0.00  0.00    +0.000 OA
ENDROOT
BRANCH   1   7
ATOM      2  C   UNL     1       2.002   0.007   0.048  0.00  0.00    +0.000 C 
ATOM      3  C   UNL     1       2.612   1.024  -0.927  0.00  0.00    +0.000 C 
ATOM      4  C   UNL     1       3.966   1.384  -0.343  0.00  0.00    +0.000 C 
ATOM      5  C   UNL     1       4.099   0.544   0.933  0.00  0.00    +0.000 C 
ATOM      6  C   UNL     1       4.757  -0.798   0.585  0.00  0.00    +0.000 C 
ATOM      7  C   UNL     1       3.847  -1.815  -0.129  0.00  0.00    +0.000 C 
ATOM      8  C   UNL     1       2.394  -1.384  -0.399  0.00  0.00    +0.000 C 
ATOM      9  N   UNL     1       2.638   0.333   1.406  0.00  0.00    +0.000 N 
ATOM     10  C   UNL     1       2.032   1.642   1.962  0.00  0.00    +0.000 C 
BRANCH   9  11
ATOM     11  C   UNL     1       2.463  -0.783   2.495  0.00  0.00    +0.000 C 
ATOM     12  C   UNL     1       3.309  -0.479   3.729  0.00  0.00    +0.000 C 
ATOM     13  C   UNL     1       0.990  -1.002   2.837  0.00  0.00    +0.000 C 
ENDBRANCH   9  11
ENDBRANCH   1   7
BRANCH   1  14
ATOM     14  C   UNL     1       3.854  -3.171  -2.072  0.00  0.00    +0.000 C 
ATOM     15  O   UNL     1       2.805  -3.704  -1.705  0.00  0.00    +0.000 OA
BRANCH  14  16
ATOM     16  C   UNL     1       4.571  -3.445  -3.378  0.00  0.00    +0.000 C 
BRANCH  16  17
ATOM     17  C   UNL     1       3.768  -4.457  -4.191  0.00  0.00    +0.000 A 
ATOM     18  C   UNL     1       2.596  -4.088  -4.873  0.00  0.00    +0.000 A 
ATOM     19  C   UNL     1       1.775  -5.073  -5.432  0.00  0.00    +0.000 A 
ATOM     20  C   UNL     1       2.152  -6.416  -5.388  0.00  0.00    +0.000 A 
ATOM     21  C   UNL     1       3.317  -6.788  -4.737  0.00  0.00    +0.000 A 
ATOM     22  C   UNL     1       4.104  -5.820  -4.135  0.00  0.00    +0.000 A 
ENDBRANCH  16  17
BRANCH  16  23
ATOM     23  C   UNL     1       5.977  -3.965  -3.031  0.00  0.00    +0.000 C 
BRANCH  23  24
ATOM     24  O   UNL     1       6.812  -3.005  -2.395  0.00  0.00    +0.000 OA
ATOM     25  H   UNL     1       6.914  -2.250  -2.995  0.00  0.00    +0.000 HD
ENDBRANCH  23  24
ENDBRANCH  16  23
ENDBRANCH  14  16
ENDBRANCH   1  14
TORSDOF 7
