REMARK  Name = Irbesartan
REMARK  8 active torsions:
REMARK  status: ('A' for Active; 'I' for Inactive)
REMARK    1  A    between atoms: C_1  and  C_2
REMARK    2  A    between atoms: C_2  and  C_3
REMARK    3  A    between atoms: C_3  and  C_4
REMARK    4  A    between atoms: C_4  and  C_5
REMARK    5  A    between atoms: N_14  and  C_15
REMARK    6  A    between atoms: C_15  and  C_16
REMARK    7  A    between atoms: C_19  and  C_22
REMARK    8  A    between atoms: C_27  and  C_28
REMARK                            x       y       z     vdW  Elec       q    Type
REMARK                         _______ _______ _______ _____ _____    ______ ____
ROOT
ATOM      1  C   UNL     1       3.839   5.496   0.610  0.00  0.00    +0.000 A 
ATOM      2  C   UNL     1       2.535   6.006   0.603  0.00  0.00    +0.000 A 
ATOM      3  C   UNL     1       2.348   7.378   0.612  0.00  0.00    +0.000 A 
ATOM      4  C   UNL     1       3.446   8.236   0.775  0.00  0.00    +0.000 A 
ATOM      5  C   UNL     1       4.740   7.704   0.817  0.00  0.00    +0.000 A 
ATOM      6  C   UNL     1       4.938   6.350   0.663  0.00  0.00    +0.000 A 
ENDROOT
BRANCH   4   7
ATOM      7  C   UNL     1       3.237   9.679   0.855  0.00  0.00    +0.000 A 
ATOM      8  C   UNL     1       2.394  10.192   1.859  0.00  0.00    +0.000 A 
ATOM      9  C   UNL     1       2.076  11.545   1.895  0.00  0.00    +0.000 A 
ATOM     10  C   UNL     1       2.671  12.418   0.989  0.00  0.00    +0.000 A 
ATOM     11  C   UNL     1       3.556  11.935   0.024  0.00  0.00    +0.000 A 
ATOM     12  C   UNL     1       3.837  10.568  -0.060  0.00  0.00    +0.000 A 
BRANCH  12  13
ATOM     13  C   UNL     1       4.752  10.098  -1.089  0.00  0.00    +0.000 A 
ATOM     14  N   UNL     1       6.026  10.513  -1.206  0.00  0.00    +0.000 NA
ATOM     15  N   UNL     1       6.433   9.728  -2.212  0.00  0.00    +0.000 N 
ATOM     16  N   UNL     1       5.524   8.886  -2.713  0.00  0.00    +0.000 NA
ATOM     17  N   UNL     1       4.431   9.116  -1.999  0.00  0.00    +0.000 NA
ATOM     18  H   UNL     1       7.376   9.775  -2.586  0.00  0.00    +0.000 HD
ENDBRANCH  12  13
ENDBRANCH   4   7
BRANCH   1  19
ATOM     19  C   UNL     1       4.090   4.031   0.607  0.00  0.00    +0.000 C 
BRANCH  19  29
ATOM     20  C   UNL     1       5.062   2.190   1.996  0.00  0.00    +0.000 C 
ATOM     21  N   UNL     1       5.714   1.900   3.082  0.00  0.00    +0.000 NA
ATOM     22  C   UNL     1       5.807   3.185   3.814  0.00  0.00    +0.000 C 
ATOM     23  C   UNL     1       5.022   3.133   5.130  0.00  0.00    +0.000 C 
ATOM     24  C   UNL     1       6.077   3.288   6.217  0.00  0.00    +0.000 C 
ATOM     25  C   UNL     1       7.129   4.172   5.567  0.00  0.00    +0.000 C 
ATOM     26  C   UNL     1       7.248   3.557   4.174  0.00  0.00    +0.000 C 
ATOM     27  C   UNL     1       5.155   4.187   2.897  0.00  0.00    +0.000 C 
ATOM     28  O   UNL     1       5.008   5.356   3.190  0.00  0.00    +0.000 OA
ATOM     29  N   UNL     1       4.750   3.484   1.791  0.00  0.00    +0.000 N 
BRANCH  20  30
ATOM     30  C   UNL     1       4.626   1.110   1.034  0.00  0.00    +0.000 C 
BRANCH  30  31
ATOM     31  C   UNL     1       3.104   0.978   1.048  0.00  0.00    +0.000 C 
BRANCH  31  33
ATOM     32  C   UNL     1       1.067  -0.019   0.048  0.00  0.00    +0.000 C 
ATOM     33  C   UNL     1       2.589  -0.051   0.061  0.00  0.00    +0.000 C 
ENDBRANCH  31  33
ENDBRANCH  30  31
ENDBRANCH  20  30
ENDBRANCH  19  29
ENDBRANCH   1  19
TORSDOF 7
