REMARK  Name = Irinotecan
REMARK  8 active torsions:
REMARK  status: ('A' for Active; 'I' for Inactive)
REMARK    1  A    between atoms: C_1  and  C_2
REMARK    2  A    between atoms: C_2  and  C_3
REMARK    3  A    between atoms: C_15  and  O_16
REMARK    4  A    between atoms: C_15  and  C_17
REMARK    5  A    between atoms: C_17  and  C_18
REMARK    6  A    between atoms: C_26  and  O_27
REMARK    7  A    between atoms: O_27  and  C_28
REMARK    8  A    between atoms: C_33  and  N_36
REMARK                            x       y       z     vdW  Elec       q    Type
REMARK                         _______ _______ _______ _____ _____    ______ ____
ROOT
ATOM      1  C   UNL     1       3.034   0.693  -1.258  0.00  0.00    +0.000 A 
ATOM      2  C   UNL     1       3.605   0.158  -2.403  0.00  0.00    +0.000 A 
ATOM      3  C   UNL     1       3.973  -1.257  -2.694  0.00  0.00    +0.000 C 
ATOM      4  N   UNL     1       4.507  -1.187  -4.056  0.00  0.00    +0.000 N 
ATOM      5  C   UNL     1       4.480   0.099  -4.576  0.00  0.00    +0.000 A 
ATOM      6  C   UNL     1       4.931   0.305  -5.836  0.00  0.00    +0.000 A 
ATOM      7  C   UNL     1       5.520  -0.826  -6.646  0.00  0.00    +0.000 A 
ATOM      8  C   UNL     1       5.502  -2.050  -6.096  0.00  0.00    +0.000 A 
ATOM      9  C   UNL     1       6.031  -3.280  -6.733  0.00  0.00    +0.000 C 
ATOM     10  O   UNL     1       6.619  -3.156  -8.028  0.00  0.00    +0.000 OA
ATOM     11  C   UNL     1       6.965  -1.978  -8.589  0.00  0.00    +0.000 C 
ATOM     12  O   UNL     1       7.587  -2.012  -9.652  0.00  0.00    +0.000 OA
ATOM     13  C   UNL     1       6.229  -0.689  -8.024  0.00  0.00    +0.000 C 
ATOM     14  C   UNL     1       4.962  -2.283  -4.725  0.00  0.00    +0.000 A 
ATOM     15  O   UNL     1       4.972  -3.420  -4.241  0.00  0.00    +0.000 OA
ATOM     16  C   UNL     1       3.902   0.974  -3.502  0.00  0.00    +0.000 A 
ATOM     17  N   UNL     1       3.677   2.306  -3.531  0.00  0.00    +0.000 NA
ATOM     18  C   UNL     1       3.138   2.865  -2.399  0.00  0.00    +0.000 A 
ATOM     19  C   UNL     1       2.827   4.234  -2.284  0.00  0.00    +0.000 A 
ATOM     20  C   UNL     1       2.237   4.820  -1.125  0.00  0.00    +0.000 A 
ATOM     21  C   UNL     1       1.958   4.023  -0.029  0.00  0.00    +0.000 A 
ATOM     22  C   UNL     1       2.310   2.695  -0.118  0.00  0.00    +0.000 A 
ATOM     23  C   UNL     1       2.838   2.087  -1.259  0.00  0.00    +0.000 A 
ENDROOT
BRANCH   1  25
ATOM     24  C   UNL     1       1.007  -0.198  -0.052  0.00  0.00    +0.000 C 
ATOM     25  C   UNL     1       2.541  -0.171  -0.104  0.00  0.00    +0.000 C 
ENDBRANCH   1  25
BRANCH  13  26
ATOM     26  O   UNL     1       5.199  -0.586  -9.022  0.00  0.00    +0.000 OA
ATOM     27  H   UNL     1       4.925  -1.514  -9.207  0.00  0.00    +0.000 HD
ENDBRANCH  13  26
BRANCH  13  28
ATOM     28  C   UNL     1       7.178   0.537  -7.931  0.00  0.00    +0.000 C 
ATOM     29  C   UNL     1       7.704   1.264  -9.159  0.00  0.00    +0.000 C 
ENDBRANCH  13  28
BRANCH  21  30
ATOM     30  O   UNL     1       1.299   4.532   1.121  0.00  0.00    +0.000 OA
BRANCH  30  31
ATOM     31  C   UNL     1       1.097   3.735   2.277  0.00  0.00    +0.000 C 
ATOM     32  O   UNL     1       1.425   2.572   2.445  0.00  0.00    +0.000 OA
ATOM     33  N   UNL     1       0.540   4.409   3.332  0.00  0.00    +0.000 N 
ATOM     34  C   UNL     1       0.932   3.959   4.662  0.00  0.00    +0.000 C 
ATOM     35  C   UNL     1      -0.245   3.493   5.503  0.00  0.00    +0.000 C 
ATOM     36  C   UNL     1      -1.415   4.499   5.525  0.00  0.00    +0.000 C 
ATOM     37  C   UNL     1      -1.775   4.864   4.051  0.00  0.00    +0.000 C 
ATOM     38  C   UNL     1      -0.594   5.294   3.156  0.00  0.00    +0.000 C 
BRANCH  36  39
ATOM     39  N   UNL     1      -1.227   5.702   6.389  0.00  0.00    +0.000 NA
ATOM     40  C   UNL     1      -0.993   5.384   7.809  0.00  0.00    +0.000 C 
ATOM     41  C   UNL     1      -0.761   6.677   8.614  0.00  0.00    +0.000 C 
ATOM     42  C   UNL     1       0.386   7.530   8.063  0.00  0.00    +0.000 C 
ATOM     43  C   UNL     1       0.136   7.836   6.610  0.00  0.00    +0.000 C 
ATOM     44  C   UNL     1      -0.130   6.535   5.925  0.00  0.00    +0.000 C 
ENDBRANCH  36  39
ENDBRANCH  30  31
ENDBRANCH  21  30
TORSDOF 6
