REMARK  Name = Iron
REMARK  0 active torsions:
REMARK  status: ('A' for Active; 'I' for Inactive)
REMARK                            x       y       z     vdW  Elec       q    Type
REMARK                         _______ _______ _______ _____ _____    ______ ____
ROOT
ATOM      1 FE   UNL     1       1.079   0.062  -0.001  0.00  0.00    +0.000 Fe
ENDROOT
TORSDOF 0
