REMARK  Name = Isavuconazole
REMARK  9 active torsions:
REMARK  status: ('A' for Active; 'I' for Inactive)
REMARK    1  A    between atoms: C_1  and  C_2
REMARK    2  A    between atoms: C_2  and  C_3
REMARK    3  A    between atoms: C_2  and  C_16
REMARK    4  A    between atoms: C_5  and  C_8
REMARK    5  A    between atoms: C_11  and  C_14
REMARK    6  A    between atoms: C_16  and  O_17
REMARK    7  A    between atoms: C_16  and  C_18
REMARK    8  A    between atoms: C_16  and  C_24
REMARK    9  A    between atoms: C_18  and  N_19
REMARK                            x       y       z     vdW  Elec       q    Type
REMARK                         _______ _______ _______ _____ _____    ______ ____
ROOT
ATOM      1  C   UNL     1       3.081  -0.088  -1.402  0.00  0.00    +0.000 C 
ENDROOT
BRANCH   1   2
ATOM      2  C   UNL     1       4.648  -0.005  -1.458  0.00  0.00    +0.000 A 
ATOM      3  C   UNL     1       5.487  -1.158  -1.580  0.00  0.00    +0.000 A 
ATOM      4  F   UNL     1       5.045  -2.365  -1.938  0.00  0.00    +0.000 F 
ATOM      5  C   UNL     1       6.859  -1.165  -1.447  0.00  0.00    +0.000 A 
ATOM      6  C   UNL     1       7.506   0.039  -1.384  0.00  0.00    +0.000 A 
ATOM      7  C   UNL     1       6.748   1.208  -1.382  0.00  0.00    +0.000 A 
ATOM      8  F   UNL     1       7.391   2.380  -1.396  0.00  0.00    +0.000 F 
ATOM      9  C   UNL     1       5.342   1.204  -1.376  0.00  0.00    +0.000 A 
ENDBRANCH   1   2
BRANCH   1  11
ATOM     10  C   UNL     1       1.294  -1.724  -2.190  0.00  0.00    +0.000 C 
ATOM     11  C   UNL     1       2.723  -1.519  -1.910  0.00  0.00    +0.000 C 
BRANCH  11  12
ATOM     12  C   UNL     1       2.977  -2.690  -1.006  0.00  0.00    +0.000 A 
ATOM     13  N   UNL     1       2.702  -3.895  -1.457  0.00  0.00    +0.000 NA
ATOM     14  C   UNL     1       3.079  -4.809  -0.533  0.00  0.00    +0.000 A 
ATOM     15  C   UNL     1       3.750  -4.310   0.561  0.00  0.00    +0.000 A 
ATOM     16  S   UNL     1       3.595  -2.618   0.597  0.00  0.00    +0.000 S 
BRANCH  14  17
ATOM     17  C   UNL     1       2.775  -6.197  -0.721  0.00  0.00    +0.000 A 
ATOM     18  C   UNL     1       3.179  -6.863  -1.880  0.00  0.00    +0.000 A 
ATOM     19  C   UNL     1       2.920  -8.226  -2.010  0.00  0.00    +0.000 A 
ATOM     20  C   UNL     1       2.250  -8.915  -0.991  0.00  0.00    +0.000 A 
ATOM     21  C   UNL     1       1.786  -8.222   0.134  0.00  0.00    +0.000 A 
ATOM     22  C   UNL     1       2.042  -6.863   0.264  0.00  0.00    +0.000 A 
BRANCH  20  23
ATOM     23  C   UNL     1       2.078 -10.325  -1.080  0.00  0.00    +0.000 C 
ATOM     24  N   UNL     1       1.970 -11.493  -1.141  0.00  0.00    +0.000 NA
ENDBRANCH  20  23
ENDBRANCH  14  17
ENDBRANCH  11  12
ENDBRANCH   1  11
BRANCH   1  25
ATOM     25  O   UNL     1       2.641   0.106  -0.043  0.00  0.00    +0.000 OA
ATOM     26  H   UNL     1       2.989   0.943   0.311  0.00  0.00    +0.000 HD
ENDBRANCH   1  25
BRANCH   1  27
ATOM     27  C   UNL     1       2.320   1.067  -2.204  0.00  0.00    +0.000 C 
BRANCH  27  28
ATOM     28  N   UNL     1       0.837   1.241  -2.141  0.00  0.00    +0.000 N 
ATOM     29  C   UNL     1      -0.258   0.420  -2.081  0.00  0.00    +0.000 A 
ATOM     30  N   UNL     1      -1.394   1.045  -2.146  0.00  0.00    +0.000 NA
ATOM     31  C   UNL     1      -0.983   2.308  -2.226  0.00  0.00    +0.000 A 
ATOM     32  N   UNL     1       0.342   2.509  -2.247  0.00  0.00    +0.000 NA
ENDBRANCH  27  28
ENDBRANCH   1  27
TORSDOF 8
