REMARK  Name = Isoaminile
REMARK  11 active torsions:
REMARK  status: ('A' for Active; 'I' for Inactive)
REMARK    1  A    between atoms: C_1  and  C_2
REMARK    2  A    between atoms: C_2  and  C_3
REMARK    3  A    between atoms: C_2  and  C_4
REMARK    4  A    between atoms: C_4  and  C_5
REMARK    5  A    between atoms: C_4  and  C_11
REMARK    6  A    between atoms: C_4  and  C_13
REMARK    7  A    between atoms: C_5  and  C_6
REMARK    8  A    between atoms: C_6  and  C_7
REMARK    9  A    between atoms: C_6  and  N_8
REMARK   10  A    between atoms: N_8  and  C_9
REMARK   11  A    between atoms: N_8  and  C_10
REMARK                            x       y       z     vdW  Elec       q    Type
REMARK                         _______ _______ _______ _____ _____    ______ ____
ROOT
ATOM      1  C   UNL     1       2.002   0.477   1.159  0.00  0.00    +0.000 C 
ENDROOT
BRANCH   1   2
ATOM      2  C   UNL     1       1.516   1.947   1.023  0.00  0.00    +0.000 A 
ATOM      3  C   UNL     1       2.375   3.020   1.267  0.00  0.00    +0.000 A 
ATOM      4  C   UNL     1       1.898   4.326   1.363  0.00  0.00    +0.000 A 
ATOM      5  C   UNL     1       0.532   4.591   1.163  0.00  0.00    +0.000 A 
ATOM      6  C   UNL     1      -0.315   3.562   0.837  0.00  0.00    +0.000 A 
ATOM      7  C   UNL     1       0.175   2.274   0.698  0.00  0.00    +0.000 A 
ENDBRANCH   1   2
BRANCH   1   9
ATOM      8  C   UNL     1       0.776  -2.152   0.390  0.00  0.00    +0.000 C 
ATOM      9  C   UNL     1       0.698  -0.598   0.795  0.00  0.00    +0.000 C 
ATOM     10  C   UNL     1      -0.365  -0.493   1.916  0.00  0.00    +0.000 C 
ENDBRANCH   1   9
BRANCH   1  11
ATOM     11  C   UNL     1       3.113   0.264   0.144  0.00  0.00    +0.000 C 
ATOM     12  N   UNL     1       4.035   0.087  -0.698  0.00  0.00    +0.000 NA
ENDBRANCH   1  11
BRANCH   1  13
ATOM     13  C   UNL     1       2.645   0.258   2.591  0.00  0.00    +0.000 C 
BRANCH  13  14
ATOM     14  C   UNL     1       3.379  -1.115   2.887  0.00  0.00    +0.000 C 
ATOM     15  C   UNL     1       3.093  -2.064   1.785  0.00  0.00    +0.000 C 
BRANCH  14  16
ATOM     16  N   UNL     1       2.780  -1.773   4.078  0.00  0.00    +0.000 NA
ATOM     17  C   UNL     1       3.123  -3.204   4.188  0.00  0.00    +0.000 C 
ATOM     18  C   UNL     1       3.147  -1.050   5.276  0.00  0.00    +0.000 C 
ENDBRANCH  14  16
ENDBRANCH  13  14
ENDBRANCH   1  13
TORSDOF 6
