REMARK  Name = Isocarboxazid
REMARK  5 active torsions:
REMARK  status: ('A' for Active; 'I' for Inactive)
REMARK    1  A    between atoms: C_1  and  C_2
REMARK    2  A    between atoms: C_4  and  C_7
REMARK    3  A    between atoms: N_9  and  N_10
REMARK    4  A    between atoms: N_10  and  C_11
REMARK    5  A    between atoms: C_11  and  C_12
REMARK                            x       y       z     vdW  Elec       q    Type
REMARK                         _______ _______ _______ _____ _____    ______ ____
ROOT
ATOM      1  C   UNL     1      -2.639  -1.521   0.009  0.00  0.00    +0.000 C 
ATOM      2  O   UNL     1      -3.748  -0.981  -0.006  0.00  0.00    +0.000 OA
ATOM      3  N   UNL     1      -2.483  -2.913  -0.004  0.00  0.00    +0.000 N 
ATOM      4  H   UNL     1      -1.565  -3.335   0.055  0.00  0.00    +0.000 HD
ENDROOT
BRANCH   1   8
ATOM      5  C   UNL     1       2.209   0.054   0.001  0.00  0.00    +0.000 C 
ATOM      6  C   UNL     1       0.752  -0.153   0.000  0.00  0.00    +0.000 A 
ATOM      7  C   UNL     1      -0.045  -1.267   0.001  0.00  0.00    +0.000 A 
ATOM      8  C   UNL     1      -1.377  -0.769   0.011  0.00  0.00    +0.000 A 
ATOM      9  N   UNL     1      -1.361   0.577   0.007  0.00  0.00    +0.000 NA
ATOM     10  O   UNL     1      -0.032   0.954   0.001  0.00  0.00    +0.000 OA
ENDBRANCH   1   8
BRANCH   3  11
ATOM     11  N   UNL     1      -3.622  -3.733   0.026  0.00  0.00    +0.000 NA
ATOM     12  H   UNL     1      -4.214  -3.491  -0.775  0.00  0.00    +0.000 HD
BRANCH  11  13
ATOM     13  C   UNL     1      -3.334  -5.167   0.018  0.00  0.00    +0.000 C 
BRANCH  13  14
ATOM     14  C   UNL     1      -4.585  -6.019   0.064  0.00  0.00    +0.000 A 
ATOM     15  C   UNL     1      -5.865  -5.464   0.224  0.00  0.00    +0.000 A 
ATOM     16  C   UNL     1      -6.981  -6.276   0.410  0.00  0.00    +0.000 A 
ATOM     17  C   UNL     1      -6.848  -7.659   0.357  0.00  0.00    +0.000 A 
ATOM     18  C   UNL     1      -5.592  -8.231   0.161  0.00  0.00    +0.000 A 
ATOM     19  C   UNL     1      -4.465  -7.417   0.024  0.00  0.00    +0.000 A 
ENDBRANCH  13  14
ENDBRANCH  11  13
ENDBRANCH   3  11
TORSDOF 4
