REMARK  Name = Isoconazole
REMARK  6 active torsions:
REMARK  status: ('A' for Active; 'I' for Inactive)
REMARK    1  A    between atoms: C_6  and  C_9
REMARK    2  A    between atoms: C_9  and  C_10
REMARK    3  A    between atoms: C_9  and  O_16
REMARK    4  A    between atoms: C_10  and  N_11
REMARK    5  A    between atoms: O_16  and  C_17
REMARK    6  A    between atoms: C_17  and  C_18
REMARK                            x       y       z     vdW  Elec       q    Type
REMARK                         _______ _______ _______ _____ _____    ______ ____
ROOT
ATOM      1  C   UNL     1       2.549  -2.104  -0.009  0.00  0.00    +0.000 C 
ENDROOT
BRANCH   1   7
ATOM      2 CL   UNL     1      -2.744   0.841   0.092  0.00  0.00    +0.000 Cl
ATOM      3  C   UNL     1      -1.262  -0.014  -0.064  0.00  0.00    +0.000 A 
ATOM      4  C   UNL     1      -0.086   0.669  -0.337  0.00  0.00    +0.000 A 
ATOM      5  C   UNL     1       1.097  -0.046  -0.559  0.00  0.00    +0.000 A 
ATOM      6 CL   UNL     1       2.383   0.781  -1.366  0.00  0.00    +0.000 Cl
ATOM      7  C   UNL     1       1.196  -1.400  -0.212  0.00  0.00    +0.000 A 
ATOM      8  C   UNL     1      -0.022  -2.062   0.014  0.00  0.00    +0.000 A 
ATOM      9  C   UNL     1      -1.248  -1.395   0.027  0.00  0.00    +0.000 A 
ENDBRANCH   1   7
BRANCH   1  10
ATOM     10  C   UNL     1       3.252  -1.725   1.335  0.00  0.00    +0.000 C 
BRANCH  10  11
ATOM     11  N   UNL     1       3.592  -0.334   1.537  0.00  0.00    +0.000 N 
ATOM     12  C   UNL     1       2.736   0.674   1.878  0.00  0.00    +0.000 A 
ATOM     13  C   UNL     1       3.453   1.823   1.611  0.00  0.00    +0.000 A 
ATOM     14  N   UNL     1       4.766   1.530   1.371  0.00  0.00    +0.000 NA
ATOM     15  C   UNL     1       4.835   0.209   1.382  0.00  0.00    +0.000 A 
ENDBRANCH  10  11
ENDBRANCH   1  10
BRANCH   1  16
ATOM     16  O   UNL     1       2.298  -3.526  -0.008  0.00  0.00    +0.000 OA
BRANCH  16  17
ATOM     17  C   UNL     1       3.441  -4.369  -0.020  0.00  0.00    +0.000 C 
BRANCH  17  18
ATOM     18  C   UNL     1       3.121  -5.852  -0.016  0.00  0.00    +0.000 A 
ATOM     19  C   UNL     1       1.832  -6.418   0.001  0.00  0.00    +0.000 A 
ATOM     20 CL   UNL     1       0.345  -5.559   0.014  0.00  0.00    +0.000 Cl
ATOM     21  C   UNL     1       1.642  -7.804   0.018  0.00  0.00    +0.000 A 
ATOM     22  C   UNL     1       2.722  -8.669   0.025  0.00  0.00    +0.000 A 
ATOM     23  C   UNL     1       4.007  -8.146   0.023  0.00  0.00    +0.000 A 
ATOM     24  C   UNL     1       4.206  -6.760   0.003  0.00  0.00    +0.000 A 
ATOM     25 CL   UNL     1       5.855  -6.219   0.017  0.00  0.00    +0.000 Cl
ENDBRANCH  17  18
ENDBRANCH  16  17
ENDBRANCH   1  16
TORSDOF 6
