REMARK  Name = Isoetharine
REMARK  11 active torsions:
REMARK  status: ('A' for Active; 'I' for Inactive)
REMARK    1  A    between atoms: C_1  and  C_2
REMARK    2  A    between atoms: C_2  and  C_3
REMARK    3  A    between atoms: C_3  and  N_4
REMARK    4  A    between atoms: C_3  and  C_8
REMARK    5  A    between atoms: N_4  and  C_5
REMARK    6  A    between atoms: C_5  and  C_6
REMARK    7  A    between atoms: C_5  and  C_7
REMARK    8  A    between atoms: C_8  and  O_9
REMARK    9  A    between atoms: C_8  and  C_10
REMARK   10  A    between atoms: C_12  and  O_13
REMARK   11  A    between atoms: C_14  and  O_15
REMARK                            x       y       z     vdW  Elec       q    Type
REMARK                         _______ _______ _______ _____ _____    ______ ____
ROOT
ATOM      1  C   UNL     1       4.490  -0.148  -1.511  0.00  0.00    +0.000 C 
ENDROOT
BRANCH   1   2
ATOM      2  C   UNL     1       5.045  -0.185  -2.931  0.00  0.00    +0.000 A 
ATOM      3  C   UNL     1       5.239  -1.389  -3.628  0.00  0.00    +0.000 A 
ATOM      4  C   UNL     1       5.679  -1.374  -4.947  0.00  0.00    +0.000 A 
ATOM      5  C   UNL     1       5.920  -0.159  -5.593  0.00  0.00    +0.000 A 
ATOM      6  C   UNL     1       5.744   1.038  -4.926  0.00  0.00    +0.000 A 
ATOM      7  C   UNL     1       5.319   1.031  -3.598  0.00  0.00    +0.000 A 
BRANCH   4   8
ATOM      8  O   UNL     1       5.875  -2.523  -5.657  0.00  0.00    +0.000 OA
ATOM      9  H   UNL     1       5.712  -3.279  -5.061  0.00  0.00    +0.000 HD
ENDBRANCH   4   8
BRANCH   5  10
ATOM     10  O   UNL     1       6.327  -0.143  -6.895  0.00  0.00    +0.000 OA
ATOM     11  H   UNL     1       6.390  -1.083  -7.151  0.00  0.00    +0.000 HD
ENDBRANCH   5  10
ENDBRANCH   1   2
BRANCH   1  12
ATOM     12  O   UNL     1       5.048  -1.251  -0.786  0.00  0.00    +0.000 OA
ATOM     13  H   UNL     1       4.592  -2.055  -1.077  0.00  0.00    +0.000 HD
ENDBRANCH   1  12
BRANCH   1  14
ATOM     14  C   UNL     1       2.897  -0.135  -1.461  0.00  0.00    +0.000 C 
BRANCH  14  16
ATOM     15  C   UNL     1       0.998  -0.833   0.283  0.00  0.00    +0.000 C 
ATOM     16  C   UNL     1       2.439  -0.342   0.022  0.00  0.00    +0.000 C 
ENDBRANCH  14  16
BRANCH  14  17
ATOM     17  N   UNL     1       2.421   1.103  -2.162  0.00  0.00    +0.000 NA
ATOM     18  H   UNL     1       2.772   1.063  -3.124  0.00  0.00    +0.000 HD
BRANCH  17  19
ATOM     19  C   UNL     1       0.976   1.324  -2.216  0.00  0.00    +0.000 C 
ATOM     20  C   UNL     1       0.454   1.860  -0.887  0.00  0.00    +0.000 C 
ATOM     21  C   UNL     1       0.561   2.421  -3.204  0.00  0.00    +0.000 C 
ENDBRANCH  17  19
ENDBRANCH  14  17
ENDBRANCH   1  14
TORSDOF 8
