REMARK  Name = Isoeugenol
REMARK  5 active torsions:
REMARK  status: ('A' for Active; 'I' for Inactive)
REMARK    1  A    between atoms: C_1  and  O_2
REMARK    2  A    between atoms: O_2  and  C_3
REMARK    3  A    between atoms: C_5  and  C_6
REMARK    4  A    between atoms: C_7  and  C_8
REMARK    5  A    between atoms: C_11  and  O_12
REMARK                            x       y       z     vdW  Elec       q    Type
REMARK                         _______ _______ _______ _____ _____    ______ ____
ROOT
ATOM      1  C   UNL     1       3.027   1.084   0.016  0.00  0.00    +0.000 A 
ATOM      2  C   UNL     1       4.436   1.039  -0.001  0.00  0.00    +0.000 A 
ATOM      3  C   UNL     1       5.207   2.214  -0.023  0.00  0.00    +0.000 A 
ATOM      4  C   UNL     1       4.530   3.439  -0.025  0.00  0.00    +0.000 A 
ATOM      5  C   UNL     1       3.139   3.502   0.004  0.00  0.00    +0.000 A 
ATOM      6  C   UNL     1       2.389   2.331   0.027  0.00  0.00    +0.000 A 
ENDROOT
BRANCH   3   7
ATOM      7  C   UNL     1       6.683   2.137  -0.043  0.00  0.00    +0.000 C 
ATOM      8  C   UNL     1       7.505   3.205  -0.068  0.00  0.00    +0.000 C 
ATOM      9  C   UNL     1       8.994   3.139  -0.089  0.00  0.00    +0.000 C 
ENDBRANCH   3   7
BRANCH   1  11
ATOM     10  C   UNL     1       1.007  -0.178   0.006  0.00  0.00    +0.000 C 
ATOM     11  O   UNL     1       2.430  -0.152   0.021  0.00  0.00    +0.000 OA
ENDBRANCH   1  11
BRANCH   6  12
ATOM     12  O   UNL     1       1.027   2.450   0.061  0.00  0.00    +0.000 OA
ATOM     13  H   UNL     1       0.780   3.388   0.086  0.00  0.00    +0.000 HD
ENDBRANCH   6  12
TORSDOF 3
