REMARK  Name = Isoflurane
REMARK  3 active torsions:
REMARK  status: ('A' for Active; 'I' for Inactive)
REMARK    1  A    between atoms: C_2  and  O_4
REMARK    2  A    between atoms: O_4  and  C_5
REMARK    3  A    between atoms: C_5  and  C_7
REMARK                            x       y       z     vdW  Elec       q    Type
REMARK                         _______ _______ _______ _____ _____    ______ ____
ROOT
ATOM      1  C   UNL     1       4.276   0.759  -0.994  0.00  0.00    +0.000 C 
ATOM      2 CL   UNL     1       5.055  -0.812  -1.365  0.00  0.00    +0.000 Cl
ENDROOT
BRANCH   1   3
ATOM      3  C   UNL     1       4.754   1.814  -2.008  0.00  0.00    +0.000 C 
ATOM      4  F   UNL     1       4.352   1.544  -3.269  0.00  0.00    +0.000 F 
ATOM      5  F   UNL     1       4.284   3.045  -1.684  0.00  0.00    +0.000 F 
ATOM      6  F   UNL     1       6.106   1.909  -2.020  0.00  0.00    +0.000 F 
ENDBRANCH   1   3
BRANCH   1   7
ATOM      7  O   UNL     1       2.850   0.631  -1.024  0.00  0.00    +0.000 OA
BRANCH   7   9
ATOM      8  F   UNL     1       0.989   0.045   0.043  0.00  0.00    +0.000 F 
ATOM      9  C   UNL     1       2.337  -0.101   0.068  0.00  0.00    +0.000 C 
ATOM     10  F   UNL     1       2.586  -1.412  -0.126  0.00  0.00    +0.000 F 
ENDBRANCH   7   9
ENDBRANCH   1   7
TORSDOF 3
