REMARK  Name = Isoflurophate
REMARK  8 active torsions:
REMARK  status: ('A' for Active; 'I' for Inactive)
REMARK    1  A    between atoms: C_1  and  C_2
REMARK    2  A    between atoms: C_2  and  C_3
REMARK    3  A    between atoms: C_2  and  O_4
REMARK    4  A    between atoms: O_4  and  P_5
REMARK    5  A    between atoms: P_5  and  O_8
REMARK    6  A    between atoms: O_8  and  C_9
REMARK    7  A    between atoms: C_9  and  C_10
REMARK    8  A    between atoms: C_9  and  C_11
REMARK                            x       y       z     vdW  Elec       q    Type
REMARK                         _______ _______ _______ _____ _____    ______ ____
ROOT
ATOM      1  P   UNL     1       4.652   0.205   1.280  0.00  0.00    +0.000 P 
ATOM      2  F   UNL     1       4.658  -0.521  -0.140  0.00  0.00    +0.000 F 
ATOM      3  O   UNL     1       4.643   1.725   1.092  0.00  0.00    +0.000 OA
ENDROOT
BRANCH   1   4
ATOM      4  O   UNL     1       2.922   0.205   1.280  0.00  0.00    +0.000 OA
BRANCH   4   6
ATOM      5  C   UNL     1       0.790  -0.075   0.107  0.00  0.00    +0.000 C 
ATOM      6  C   UNL     1       2.305  -0.001  -0.015  0.00  0.00    +0.000 C 
ATOM      7  C   UNL     1       2.630   1.092  -1.037  0.00  0.00    +0.000 C 
ENDBRANCH   4   6
ENDBRANCH   1   4
BRANCH   1   8
ATOM      8  O   UNL     1       6.382   0.205   1.280  0.00  0.00    +0.000 OA
BRANCH   8   9
ATOM      9  C   UNL     1       6.997   0.112  -0.028  0.00  0.00    +0.000 C 
ATOM     10  C   UNL     1       6.669   1.289  -0.949  0.00  0.00    +0.000 C 
ATOM     11  C   UNL     1       8.512   0.025   0.084  0.00  0.00    +0.000 C 
ENDBRANCH   8   9
ENDBRANCH   1   8
TORSDOF 4
