REMARK  Name = Isometheptene
REMARK  8 active torsions:
REMARK  status: ('A' for Active; 'I' for Inactive)
REMARK    1  A    between atoms: C_1  and  N_2
REMARK    2  A    between atoms: N_2  and  C_3
REMARK    3  A    between atoms: C_3  and  C_4
REMARK    4  A    between atoms: C_3  and  C_5
REMARK    5  A    between atoms: C_5  and  C_6
REMARK    6  A    between atoms: C_6  and  C_7
REMARK    7  A    between atoms: C_8  and  C_9
REMARK    8  A    between atoms: C_8  and  C_10
REMARK                            x       y       z     vdW  Elec       q    Type
REMARK                         _______ _______ _______ _____ _____    ______ ____
ROOT
ATOM      1  C   UNL     1       4.460  -0.465  -1.228  0.00  0.00    +0.000 C 
ENDROOT
BRANCH   1   2
ATOM      2  C   UNL     1       2.918  -0.444  -1.265  0.00  0.00    +0.000 C 
ATOM      3  C   UNL     1       2.412   0.525  -2.344  0.00  0.00    +0.000 C 
BRANCH   2   5
ATOM      4  C   UNL     1       0.970  -0.087   0.145  0.00  0.00    +0.000 C 
ATOM      5  N   UNL     1       2.426  -0.064   0.068  0.00  0.00    +0.000 NA
ATOM      6  H   UNL     1       2.803  -0.711   0.761  0.00  0.00    +0.000 HD
ENDBRANCH   2   5
ENDBRANCH   1   2
BRANCH   1   7
ATOM      7  C   UNL     1       5.023  -0.903  -2.576  0.00  0.00    +0.000 C 
BRANCH   7   8
ATOM      8  C   UNL     1       6.514  -0.934  -2.630  0.00  0.00    +0.000 C 
ATOM      9  C   UNL     1       7.187  -1.260  -3.754  0.00  0.00    +0.000 C 
ATOM     10  C   UNL     1       6.502  -1.642  -5.040  0.00  0.00    +0.000 C 
ATOM     11  C   UNL     1       8.686  -1.252  -3.776  0.00  0.00    +0.000 C 
ENDBRANCH   7   8
ENDBRANCH   1   7
TORSDOF 4
