REMARK  Name = Isoniazid
REMARK  2 active torsions:
REMARK  status: ('A' for Active; 'I' for Inactive)
REMARK    1  A    between atoms: N_1  and  N_2
REMARK    2  A    between atoms: C_3  and  C_5
REMARK                            x       y       z     vdW  Elec       q    Type
REMARK                         _______ _______ _______ _____ _____    ______ ____
ROOT
ATOM      1  N   UNL     1       2.573   0.075  -0.098  0.00  0.00    +0.000 N 
ATOM      2  C   UNL     1       3.231   1.270  -0.390  0.00  0.00    +0.000 C 
ATOM      3  O   UNL     1       2.669   2.329  -0.667  0.00  0.00    +0.000 OA
ATOM      4  H   UNL     1       3.098  -0.713   0.275  0.00  0.00    +0.000 HD
ENDROOT
BRANCH   2   5
ATOM      5  C   UNL     1       4.717   1.230  -0.359  0.00  0.00    +0.000 A 
ATOM      6  C   UNL     1       5.424   0.173  -0.930  0.00  0.00    +0.000 A 
ATOM      7  C   UNL     1       6.808   0.243  -0.922  0.00  0.00    +0.000 A 
ATOM      8  N   UNL     1       7.507   1.262  -0.379  0.00  0.00    +0.000 NA
ATOM      9  C   UNL     1       6.796   2.275   0.161  0.00  0.00    +0.000 A 
ATOM     10  C   UNL     1       5.413   2.312   0.185  0.00  0.00    +0.000 A 
ENDBRANCH   2   5
BRANCH   1  11
ATOM     11  N   UNL     1       1.165   0.074   0.010  0.00  0.00    +0.000 NA
ATOM     12  H   UNL     1       0.814  -0.861   0.217  0.00  0.00    +0.000 HD
ATOM     13  H   UNL     1       0.777   0.342  -0.900  0.00  0.00    +0.000 HD
ENDBRANCH   1  11
TORSDOF 2
