REMARK  Name = Isopropamide
REMARK  13 active torsions:
REMARK  status: ('A' for Active; 'I' for Inactive)
REMARK    1  A    between atoms: C_1  and  C_2
REMARK    2  A    between atoms: C_2  and  C_3
REMARK    3  A    between atoms: C_2  and  N_4
REMARK    4  A    between atoms: N_4  and  C_5
REMARK    5  A    between atoms: N_4  and  C_6
REMARK    6  A    between atoms: N_4  and  C_24
REMARK    7  A    between atoms: C_6  and  C_7
REMARK    8  A    between atoms: C_7  and  C_8
REMARK    9  A    between atoms: C_8  and  C_9
REMARK   10  A    between atoms: C_8  and  C_12
REMARK   11  A    between atoms: C_8  and  C_18
REMARK   12  A    between atoms: C_24  and  C_25
REMARK   13  A    between atoms: C_24  and  C_26
REMARK                            x       y       z     vdW  Elec       q    Type
REMARK                         _______ _______ _______ _____ _____    ______ ____
ROOT
ATOM      1  C   UNL     1       0.439   0.824   3.776  0.00  0.00    +0.000 C 
ENDROOT
BRANCH   1   2
ATOM      2  C   UNL     1       0.906   2.053   4.575  0.00  0.00    +0.000 A 
ATOM      3  C   UNL     1       1.180   1.975   5.940  0.00  0.00    +0.000 A 
ATOM      4  C   UNL     1       1.430   3.112   6.690  0.00  0.00    +0.000 A 
ATOM      5  C   UNL     1       1.320   4.367   6.108  0.00  0.00    +0.000 A 
ATOM      6  C   UNL     1       1.012   4.489   4.762  0.00  0.00    +0.000 A 
ATOM      7  C   UNL     1       0.871   3.345   3.991  0.00  0.00    +0.000 A 
ENDBRANCH   1   2
BRANCH   1   8
ATOM      8  C   UNL     1      -1.126   0.793   3.692  0.00  0.00    +0.000 A 
ATOM      9  C   UNL     1      -1.890   1.978   3.634  0.00  0.00    +0.000 A 
ATOM     10  C   UNL     1      -3.275   1.964   3.767  0.00  0.00    +0.000 A 
ATOM     11  C   UNL     1      -3.947   0.756   3.815  0.00  0.00    +0.000 A 
ATOM     12  C   UNL     1      -3.234  -0.431   3.724  0.00  0.00    +0.000 A 
ATOM     13  C   UNL     1      -1.842  -0.412   3.653  0.00  0.00    +0.000 A 
ENDBRANCH   1   8
BRANCH   1  14
ATOM     14  C   UNL     1       1.027  -0.590   4.211  0.00  0.00    +0.000 C 
ATOM     15  N   UNL     1       1.871  -0.729   5.257  0.00  0.00    +0.000 N 
ATOM     16  O   UNL     1       0.839  -1.627   3.545  0.00  0.00    +0.000 OA
ATOM     17  H   UNL     1       2.519  -0.003   5.532  0.00  0.00    +0.000 HD
ATOM     18  H   UNL     1       2.122  -1.674   5.529  0.00  0.00    +0.000 HD
ENDBRANCH   1  14
BRANCH   1  19
ATOM     19  C   UNL     1       0.909   0.969   2.325  0.00  0.00    +0.000 C 
BRANCH  19  20
ATOM     20  C   UNL     1       2.415   0.945   2.143  0.00  0.00    +0.000 C 
BRANCH  20  21
ATOM     21  N   UNL     1       2.888   1.148   0.658  0.00  0.00    +0.000 N 
ATOM     22  C   UNL     1       2.381   2.497   0.142  0.00  0.00    +0.000 C 
BRANCH  21  24
ATOM     23  C   UNL     1       0.832  -0.196  -0.356  0.00  0.00    +0.000 C 
ATOM     24  C   UNL     1       2.361  -0.090  -0.225  0.00  0.00    +0.000 C 
ATOM     25  C   UNL     1       2.798  -0.024  -1.684  0.00  0.00    +0.000 C 
ENDBRANCH  21  24
BRANCH  21  26
ATOM     26  C   UNL     1       4.502   1.168   0.743  0.00  0.00    +0.000 C 
ATOM     27  C   UNL     1       5.196   1.389  -0.600  0.00  0.00    +0.000 C 
ATOM     28  C   UNL     1       5.019   2.292   1.662  0.00  0.00    +0.000 C 
ENDBRANCH  21  26
ENDBRANCH  20  21
ENDBRANCH  19  20
ENDBRANCH   1  19
TORSDOF 8
