REMARK  Name = Isopropyl alcohol
REMARK  3 active torsions:
REMARK  status: ('A' for Active; 'I' for Inactive)
REMARK    1  A    between atoms: C_1  and  C_2
REMARK    2  A    between atoms: C_2  and  C_3
REMARK    3  A    between atoms: C_2  and  O_4
REMARK                            x       y       z     vdW  Elec       q    Type
REMARK                         _______ _______ _______ _____ _____    ______ ____
ROOT
ATOM      1  C   UNL     1       1.070   0.036   0.068  0.00  0.00    +0.000 C 
ATOM      2  C   UNL     1       2.591   0.019   0.049  0.00  0.00    +0.000 C 
ATOM      3  C   UNL     1       3.121  -0.984  -0.964  0.00  0.00    +0.000 C 
ENDROOT
BRANCH   2   4
ATOM      4  O   UNL     1       3.073   1.319  -0.276  0.00  0.00    +0.000 OA
ATOM      5  H   UNL     1       2.743   1.549  -1.161  0.00  0.00    +0.000 HD
ENDBRANCH   2   4
TORSDOF 1
