REMARK  Name = Isoprenaline
REMARK  9 active torsions:
REMARK  status: ('A' for Active; 'I' for Inactive)
REMARK    1  A    between atoms: C_1  and  C_2
REMARK    2  A    between atoms: C_2  and  C_3
REMARK    3  A    between atoms: C_2  and  N_4
REMARK    4  A    between atoms: N_4  and  C_5
REMARK    5  A    between atoms: C_5  and  C_6
REMARK    6  A    between atoms: C_6  and  O_7
REMARK    7  A    between atoms: C_6  and  C_8
REMARK    8  A    between atoms: C_10  and  O_11
REMARK    9  A    between atoms: C_12  and  O_13
REMARK                            x       y       z     vdW  Elec       q    Type
REMARK                         _______ _______ _______ _____ _____    ______ ____
ROOT
ATOM      1  C   UNL     1       6.539  -2.726   0.826  0.00  0.00    +0.000 A 
ATOM      2  C   UNL     1       7.251  -2.517   2.025  0.00  0.00    +0.000 A 
ATOM      3  C   UNL     1       8.647  -2.514   2.005  0.00  0.00    +0.000 A 
ATOM      4  C   UNL     1       9.335  -2.704   0.813  0.00  0.00    +0.000 A 
ATOM      5  C   UNL     1       8.653  -2.876  -0.381  0.00  0.00    +0.000 A 
ATOM      6  C   UNL     1       7.259  -2.878  -0.372  0.00  0.00    +0.000 A 
ENDROOT
BRANCH   3   7
ATOM      7  O   UNL     1       9.387  -2.326   3.142  0.00  0.00    +0.000 OA
ATOM      8  H   UNL     1       8.778  -2.207   3.889  0.00  0.00    +0.000 HD
ENDBRANCH   3   7
BRANCH   4   9
ATOM      9  O   UNL     1      10.701  -2.725   0.791  0.00  0.00    +0.000 OA
ATOM     10  H   UNL     1      10.966  -2.616   1.725  0.00  0.00    +0.000 HD
ENDBRANCH   4   9
BRANCH   1  11
ATOM     11  C   UNL     1       5.019  -2.722   0.827  0.00  0.00    +0.000 C 
BRANCH  11  12
ATOM     12  O   UNL     1       4.514  -3.765  -0.014  0.00  0.00    +0.000 OA
ATOM     13  H   UNL     1       4.730  -3.534  -0.931  0.00  0.00    +0.000 HD
ENDBRANCH  11  12
BRANCH  11  14
ATOM     14  C   UNL     1       4.493  -1.347   0.362  0.00  0.00    +0.000 C 
BRANCH  14  15
ATOM     15  N   UNL     1       3.025  -1.276   0.373  0.00  0.00    +0.000 NA
ATOM     16  H   UNL     1       2.654  -2.033  -0.207  0.00  0.00    +0.000 HD
BRANCH  15  18
ATOM     17  C   UNL     1       0.989  -0.020  -0.107  0.00  0.00    +0.000 C 
ATOM     18  C   UNL     1       2.518   0.022  -0.085  0.00  0.00    +0.000 C 
ATOM     19  C   UNL     1       2.976   1.158   0.834  0.00  0.00    +0.000 C 
ENDBRANCH  15  18
ENDBRANCH  14  15
ENDBRANCH  11  14
ENDBRANCH   1  11
TORSDOF 7
