REMARK  Name = Isosorbide mononitrate
REMARK  3 active torsions:
REMARK  status: ('A' for Active; 'I' for Inactive)
REMARK    1  A    between atoms: C_5  and  O_6
REMARK    2  A    between atoms: O_6  and  N_7
REMARK    3  A    between atoms: C_14  and  O_15
REMARK                            x       y       z     vdW  Elec       q    Type
REMARK                         _______ _______ _______ _____ _____    ______ ____
ROOT
ATOM      1  C   UNL     1       2.108  -0.006  -0.079  0.00  0.00    +0.000 C 
ATOM      2  O   UNL     1       2.636   1.284  -0.370  0.00  0.00    +0.000 OA
ATOM      3  C   UNL     1       4.009   1.102  -0.751  0.00  0.00    +0.000 C 
ATOM      4  C   UNL     1       4.189  -0.347  -1.233  0.00  0.00    +0.000 C 
ATOM      5  C   UNL     1       2.795  -0.963  -1.023  0.00  0.00    +0.000 C 
ATOM      6  O   UNL     1       2.811  -2.241  -0.371  0.00  0.00    +0.000 OA
ATOM      7  C   UNL     1       2.657  -2.027   1.047  0.00  0.00    +0.000 C 
ATOM      8  C   UNL     1       2.531  -0.530   1.289  0.00  0.00    +0.000 C 
ENDROOT
BRANCH   8   9
ATOM      9  O   UNL     1       1.611  -0.217   2.323  0.00  0.00    +0.000 OA
ATOM     10  H   UNL     1       0.755  -0.625   2.110  0.00  0.00    +0.000 HD
ENDBRANCH   8   9
BRANCH   4  11
ATOM     11  O   UNL     1       5.123  -1.084  -0.440  0.00  0.00    +0.000 OA
BRANCH  11  12
ATOM     12  N   UNL     1       6.462  -0.674  -0.567  0.00  0.00    +0.000 N 
ATOM     13  O   UNL     1       6.684   0.300  -1.290  0.00  0.00    +0.000 OA
ATOM     14  O   UNL     1       7.228  -1.346   0.114  0.00  0.00    +0.000 OA
ENDBRANCH  11  12
ENDBRANCH   4  11
TORSDOF 3
