REMARK  Name = Isosorbide
REMARK  2 active torsions:
REMARK  status: ('A' for Active; 'I' for Inactive)
REMARK    1  A    between atoms: C_2  and  O_3
REMARK    2  A    between atoms: C_8  and  O_10
REMARK                            x       y       z     vdW  Elec       q    Type
REMARK                         _______ _______ _______ _____ _____    ______ ____
ROOT
ATOM      1  C   UNL     1       2.155  -0.030   0.114  0.00  0.00    +0.000 C 
ATOM      2  C   UNL     1       2.802   0.656   1.319  0.00  0.00    +0.000 C 
ATOM      3  O   UNL     1       3.501   1.822   0.852  0.00  0.00    +0.000 OA
ATOM      4  C   UNL     1       3.001   2.127  -0.448  0.00  0.00    +0.000 C 
ATOM      5  C   UNL     1       1.725   2.968  -0.459  0.00  0.00    +0.000 C 
ATOM      6  C   UNL     1       1.006   2.453  -1.698  0.00  0.00    +0.000 C 
ATOM      7  O   UNL     1       1.470   1.111  -1.952  0.00  0.00    +0.000 OA
ATOM      8  C   UNL     1       2.574   0.823  -1.079  0.00  0.00    +0.000 C 
ENDROOT
BRANCH   1   9
ATOM      9  O   UNL     1       2.606  -1.376  -0.013  0.00  0.00    +0.000 OA
ATOM     10  H   UNL     1       2.264  -1.867   0.755  0.00  0.00    +0.000 HD
ENDBRANCH   1   9
BRANCH   5  11
ATOM     11  O   UNL     1       0.898   2.784   0.695  0.00  0.00    +0.000 OA
ATOM     12  H   UNL     1       0.485   1.902   0.650  0.00  0.00    +0.000 HD
ENDBRANCH   5  11
TORSDOF 2
