REMARK  Name = Isosorbide dinitrate
REMARK  4 active torsions:
REMARK  status: ('A' for Active; 'I' for Inactive)
REMARK    1  A    between atoms: C_5  and  O_6
REMARK    2  A    between atoms: O_6  and  N_7
REMARK    3  A    between atoms: C_14  and  O_15
REMARK    4  A    between atoms: O_15  and  N_16
REMARK                            x       y       z     vdW  Elec       q    Type
REMARK                         _______ _______ _______ _____ _____    ______ ____
ROOT
ATOM      1  C   UNL     1       2.157   0.015   0.089  0.00  0.00    +0.000 C 
ATOM      2  O   UNL     1       2.552   1.316   0.547  0.00  0.00    +0.000 OA
ATOM      3  C   UNL     1       3.715   1.691  -0.215  0.00  0.00    +0.000 C 
ATOM      4  C   UNL     1       3.523   1.079  -1.612  0.00  0.00    +0.000 C 
ATOM      5  C   UNL     1       2.840  -0.229  -1.254  0.00  0.00    +0.000 C 
ATOM      6  O   UNL     1       3.799  -1.281  -1.028  0.00  0.00    +0.000 OA
ATOM      7  C   UNL     1       3.174  -2.124  -0.044  0.00  0.00    +0.000 C 
ATOM      8  C   UNL     1       2.650  -1.133   0.987  0.00  0.00    +0.000 C 
ENDROOT
BRANCH   4   9
ATOM      9  O   UNL     1       2.911   2.095  -2.411  0.00  0.00    +0.000 OA
BRANCH   9  10
ATOM     10  N   UNL     1       1.806   1.797  -3.237  0.00  0.00    +0.000 N 
ATOM     11  O   UNL     1       1.156   0.781  -3.007  0.00  0.00    +0.000 OA
ATOM     12  O   UNL     1       1.587   2.673  -4.065  0.00  0.00    +0.000 OA
ENDBRANCH   9  10
ENDBRANCH   4   9
BRANCH   8  13
ATOM     13  O   UNL     1       3.726  -0.677   1.814  0.00  0.00    +0.000 OA
BRANCH  13  14
ATOM     14  N   UNL     1       4.055  -1.576   2.853  0.00  0.00    +0.000 N 
ATOM     15  O   UNL     1       3.440  -2.643   2.890  0.00  0.00    +0.000 OA
ATOM     16  O   UNL     1       4.952  -1.157   3.581  0.00  0.00    +0.000 OA
ENDBRANCH  13  14
ENDBRANCH   8  13
TORSDOF 4
