REMARK  Name = Isotretinoin
REMARK  11 active torsions:
REMARK  status: ('A' for Active; 'I' for Inactive)
REMARK    1  A    between atoms: C_1  and  C_2
REMARK    2  A    between atoms: C_2  and  C_3
REMARK    3  A    between atoms: C_4  and  C_5
REMARK    4  A    between atoms: C_6  and  C_7
REMARK    5  A    between atoms: C_11  and  C_12
REMARK    6  A    between atoms: C_11  and  C_13
REMARK    7  A    between atoms: C_14  and  C_15
REMARK    8  A    between atoms: C_16  and  C_17
REMARK    9  A    between atoms: C_17  and  C_18
REMARK   10  A    between atoms: C_19  and  C_20
REMARK   11  A    between atoms: C_20  and  O_21
REMARK                            x       y       z     vdW  Elec       q    Type
REMARK                         _______ _______ _______ _____ _____    ______ ____
ROOT
ATOM      1  C   UNL     1       0.973   0.111  -0.039  0.00  0.00    +0.000 C 
ATOM      2  C   UNL     1       2.478   0.138  -0.021  0.00  0.00    +0.000 C 
ATOM      3  C   UNL     1       3.117  -0.052   1.148  0.00  0.00    +0.000 C 
ENDROOT
BRANCH   2   4
ATOM      4  C   UNL     1       3.227   0.358  -1.247  0.00  0.00    +0.000 C 
ATOM      5  C   UNL     1       2.690   0.461  -2.474  0.00  0.00    +0.000 C 
BRANCH   5   6
ATOM      6  C   UNL     1       3.436   0.597  -3.718  0.00  0.00    +0.000 C 
ATOM      7  C   UNL     1       4.461  -0.236  -4.021  0.00  0.00    +0.000 C 
ATOM      8  C   UNL     1       4.882  -1.435  -3.204  0.00  0.00    +0.000 C 
ATOM      9  C   UNL     1       5.306  -0.065  -5.261  0.00  0.00    +0.000 C 
ATOM     10  C   UNL     1       5.090   1.253  -5.991  0.00  0.00    +0.000 C 
ATOM     11  C   UNL     1       3.604   1.548  -6.094  0.00  0.00    +0.000 C 
ATOM     12  C   UNL     1       2.941   1.692  -4.697  0.00  0.00    +0.000 C 
ATOM     13  C   UNL     1       1.413   1.631  -4.942  0.00  0.00    +0.000 C 
ATOM     14  C   UNL     1       3.281   3.082  -4.121  0.00  0.00    +0.000 C 
ENDBRANCH   5   6
ENDBRANCH   2   4
BRANCH   3  15
ATOM     15  C   UNL     1       2.388  -0.245   2.388  0.00  0.00    +0.000 C 
ATOM     16  C   UNL     1       3.013  -0.406   3.549  0.00  0.00    +0.000 C 
BRANCH  16  17
ATOM     17  C   UNL     1       2.454  -0.588   4.868  0.00  0.00    +0.000 C 
ATOM     18  C   UNL     1       0.934  -0.606   5.013  0.00  0.00    +0.000 C 
ATOM     19  C   UNL     1       3.213  -0.740   5.976  0.00  0.00    +0.000 C 
BRANCH  19  20
ATOM     20  C   UNL     1       4.666  -0.783   6.283  0.00  0.00    +0.000 C 
ATOM     21  O   UNL     1       5.027  -0.945   7.447  0.00  0.00    +0.000 OA
BRANCH  20  22
ATOM     22  O   UNL     1       5.590  -0.650   5.327  0.00  0.00    +0.000 OA
ATOM     23  H   UNL     1       5.345  -0.520   4.407  0.00  0.00    +0.000 HD
ENDBRANCH  20  22
ENDBRANCH  19  20
ENDBRANCH  16  17
ENDBRANCH   3  15
TORSDOF 6
