REMARK  Name = Isoxaflutole
REMARK  6 active torsions:
REMARK  status: ('A' for Active; 'I' for Inactive)
REMARK    1  A    between atoms: C_5  and  C_29
REMARK    2  A    between atoms: C_6  and  C_7
REMARK    3  A    between atoms: C_7  and  C_9
REMARK    4  A    between atoms: C_10  and  S_22
REMARK    5  A    between atoms: C_13  and  C_18
REMARK    6  A    between atoms: S_22  and  C_25
REMARK                            x       y       z     vdW  Elec       q    Type
REMARK                         _______ _______ _______ _____ _____    ______ ____
ROOT
ATOM      1  C   UNL     1       2.886   3.993  -0.132  0.00  0.00    +0.000 A 
ATOM      2  C   UNL     1       3.009   4.823   0.998  0.00  0.00    +0.000 A 
ATOM      3  C   UNL     1       3.917   5.921   0.958  0.00  0.00    +0.000 A 
ATOM      4  C   UNL     1       4.783   6.127  -0.138  0.00  0.00    +0.000 A 
ATOM      5  C   UNL     1       4.617   5.316  -1.271  0.00  0.00    +0.000 A 
ATOM      6  C   UNL     1       3.633   4.302  -1.299  0.00  0.00    +0.000 A 
ENDROOT
BRANCH   4   7
ATOM      7  C   UNL     1       5.912   7.144  -0.066  0.00  0.00    +0.000 C 
ATOM      8  F   UNL     1       5.453   8.421  -0.107  0.00  0.00    +0.000 F 
ATOM      9  F   UNL     1       6.654   7.041   1.072  0.00  0.00    +0.000 F 
ATOM     10  F   UNL     1       6.806   7.031  -1.090  0.00  0.00    +0.000 F 
ENDBRANCH   4   7
BRANCH   2  11
ATOM     11  S   UNL     1       2.307   4.485   2.613  0.00  0.00    +0.000 S 
ATOM     12  O   UNL     1       3.463   4.402   3.507  0.00  0.00    +0.000 OA
ATOM     13  O   UNL     1       1.295   5.486   2.819  0.00  0.00    +0.000 OA
ATOM     14  C   UNL     1       1.537   2.900   2.700  0.00  0.00    +0.000 C 
ENDBRANCH   2  11
BRANCH   1  15
ATOM     15  C   UNL     1       2.181   2.696  -0.127  0.00  0.00    +0.000 C 
ATOM     16  O   UNL     1       0.972   2.804  -0.251  0.00  0.00    +0.000 OA
BRANCH  15  21
ATOM     17  C   UNL     1       1.989   0.188   0.040  0.00  0.00    +0.000 A 
ATOM     18  N   UNL     1       2.681  -0.944   0.073  0.00  0.00    +0.000 NA
ATOM     19  O   UNL     1       3.992  -0.553   0.090  0.00  0.00    +0.000 OA
ATOM     20  C   UNL     1       4.100   0.815   0.134  0.00  0.00    +0.000 A 
ATOM     21  C   UNL     1       2.815   1.365   0.025  0.00  0.00    +0.000 A 
BRANCH  20  22
ATOM     22  C   UNL     1       5.534   1.359   0.158  0.00  0.00    +0.000 C 
ATOM     23  C   UNL     1       5.658   2.800  -0.084  0.00  0.00    +0.000 C 
ATOM     24  C   UNL     1       6.220   2.298   1.159  0.00  0.00    +0.000 C 
ENDBRANCH  20  22
ENDBRANCH  15  21
ENDBRANCH   1  15
TORSDOF 5
