REMARK  Name = Isoxicam
REMARK  4 active torsions:
REMARK  status: ('A' for Active; 'I' for Inactive)
REMARK    1  A    between atoms: C_1  and  N_2
REMARK    2  A    between atoms: C_3  and  C_4
REMARK    3  A    between atoms: C_10  and  C_11
REMARK    4  A    between atoms: C_13  and  O_14
REMARK                            x       y       z     vdW  Elec       q    Type
REMARK                         _______ _______ _______ _____ _____    ______ ____
ROOT
ATOM      1  C   UNL     1       1.794  -0.667   1.978  0.00  0.00    +0.000 C 
ATOM      2  N   UNL     1       1.606  -0.878   0.523  0.00  0.00    +0.000 N 
ATOM      3  C   UNL     1       0.776  -2.011   0.107  0.00  0.00    +0.000 C 
ATOM      4  C   UNL     1      -0.534  -1.769  -0.142  0.00  0.00    +0.000 C 
ATOM      5  C   UNL     1      -1.155  -0.430  -0.023  0.00  0.00    +0.000 A 
ATOM      6  C   UNL     1      -0.404   0.742  -0.077  0.00  0.00    +0.000 A 
ATOM      7  C   UNL     1      -0.982   2.003   0.092  0.00  0.00    +0.000 A 
ATOM      8  C   UNL     1      -2.366   2.094   0.251  0.00  0.00    +0.000 A 
ATOM      9  C   UNL     1      -3.148   0.941   0.250  0.00  0.00    +0.000 A 
ATOM     10  C   UNL     1      -2.544  -0.309   0.129  0.00  0.00    +0.000 A 
ATOM     11  S   UNL     1       1.321   0.554  -0.358  0.00  0.00    +0.000 S 
ATOM     12  O   UNL     1       1.997   1.651   0.295  0.00  0.00    +0.000 OA
ATOM     13  O   UNL     1       1.490   0.284  -1.774  0.00  0.00    +0.000 OA
ENDROOT
BRANCH   3  14
ATOM     14  C   UNL     1       1.485  -3.357   0.060  0.00  0.00    +0.000 C 
ATOM     15  O   UNL     1       2.667  -3.423   0.403  0.00  0.00    +0.000 OA
ATOM     16  N   UNL     1       0.770  -4.450  -0.394  0.00  0.00    +0.000 N 
ATOM     17  C   UNL     1       1.321  -5.716  -0.430  0.00  0.00    +0.000 A 
ATOM     18  N   UNL     1       0.953  -6.592  -1.370  0.00  0.00    +0.000 NA
ATOM     19  O   UNL     1       1.736  -7.718  -1.159  0.00  0.00    +0.000 OA
ATOM     20  C   UNL     1       2.486  -7.533  -0.040  0.00  0.00    +0.000 A 
ATOM     21  C   UNL     1       3.355  -8.637   0.393  0.00  0.00    +0.000 C 
ATOM     22  C   UNL     1       2.238  -6.287   0.471  0.00  0.00    +0.000 A 
ATOM     23  H   UNL     1       0.016  -4.366  -1.057  0.00  0.00    +0.000 HD
ENDBRANCH   3  14
BRANCH   4  24
ATOM     24  O   UNL     1      -1.465  -2.717  -0.522  0.00  0.00    +0.000 OA
ATOM     25  H   UNL     1      -1.253  -3.587  -0.159  0.00  0.00    +0.000 HD
ENDBRANCH   4  24
TORSDOF 2
