REMARK  Name = Isoxsuprine
REMARK  11 active torsions:
REMARK  status: ('A' for Active; 'I' for Inactive)
REMARK    1  A    between atoms: C_1  and  C_2
REMARK    2  A    between atoms: C_2  and  C_3
REMARK    3  A    between atoms: C_2  and  N_11
REMARK    4  A    between atoms: C_3  and  O_4
REMARK    5  A    between atoms: O_4  and  C_5
REMARK    6  A    between atoms: N_11  and  C_12
REMARK    7  A    between atoms: C_12  and  C_13
REMARK    8  A    between atoms: C_12  and  C_14
REMARK    9  A    between atoms: C_14  and  O_15
REMARK   10  A    between atoms: C_14  and  C_16
REMARK   11  A    between atoms: C_19  and  O_20
REMARK                            x       y       z     vdW  Elec       q    Type
REMARK                         _______ _______ _______ _____ _____    ______ ____
ROOT
ATOM      1  C   UNL     1       4.308   1.122   0.870  0.00  0.00    +0.000 C 
ATOM      2  C   UNL     1       2.811   1.121   1.183  0.00  0.00    +0.000 C 
ENDROOT
BRANCH   1   3
ATOM      3  N   UNL     1       4.681   1.294  -0.563  0.00  0.00    +0.000 NA
ATOM      4  H   UNL     1       4.414   2.210  -0.923  0.00  0.00    +0.000 HD
BRANCH   3   6
ATOM      5  C   UNL     1       4.997   0.425  -2.852  0.00  0.00    +0.000 C 
ATOM      6  C   UNL     1       4.303   0.221  -1.500  0.00  0.00    +0.000 C 
BRANCH   6   7
ATOM      7  C   UNL     1       2.785   0.137  -1.715  0.00  0.00    +0.000 C 
BRANCH   7   8
ATOM      8  O   UNL     1       2.327   0.869  -2.836  0.00  0.00    +0.000 OA
BRANCH   8   9
ATOM      9  C   UNL     1       0.985   1.137  -2.815  0.00  0.00    +0.000 A 
ATOM     10  C   UNL     1       0.416   1.166  -4.076  0.00  0.00    +0.000 A 
ATOM     11  C   UNL     1      -0.926   1.490  -4.229  0.00  0.00    +0.000 A 
ATOM     12  C   UNL     1      -1.716   1.748  -3.106  0.00  0.00    +0.000 A 
ATOM     13  C   UNL     1      -1.155   1.716  -1.836  0.00  0.00    +0.000 A 
ATOM     14  C   UNL     1       0.200   1.425  -1.687  0.00  0.00    +0.000 A 
ENDBRANCH   8   9
ENDBRANCH   7   8
ENDBRANCH   6   7
ENDBRANCH   3   6
ENDBRANCH   1   3
BRANCH   1  15
ATOM     15  C   UNL     1       4.974   2.230   1.752  0.00  0.00    +0.000 C 
BRANCH  15  16
ATOM     16  C   UNL     1       6.485   2.226   1.727  0.00  0.00    +0.000 A 
ATOM     17  C   UNL     1       7.186   3.315   2.254  0.00  0.00    +0.000 A 
ATOM     18  C   UNL     1       8.573   3.395   2.112  0.00  0.00    +0.000 A 
ATOM     19  C   UNL     1       9.259   2.349   1.491  0.00  0.00    +0.000 A 
ATOM     20  C   UNL     1       8.590   1.251   0.999  0.00  0.00    +0.000 A 
ATOM     21  C   UNL     1       7.212   1.180   1.129  0.00  0.00    +0.000 A 
BRANCH  19  22
ATOM     22  O   UNL     1      10.614   2.365   1.354  0.00  0.00    +0.000 OA
ATOM     23  H   UNL     1      10.960   3.106   1.872  0.00  0.00    +0.000 HD
ENDBRANCH  19  22
ENDBRANCH  15  16
BRANCH  15  24
ATOM     24  O   UNL     1       4.557   2.112   3.117  0.00  0.00    +0.000 OA
ATOM     25  H   UNL     1       4.850   1.236   3.421  0.00  0.00    +0.000 HD
ENDBRANCH  15  24
ENDBRANCH   1  15
TORSDOF 9
