REMARK  Name = Isradipine
REMARK  11 active torsions:
REMARK  status: ('A' for Active; 'I' for Inactive)
REMARK    1  A    between atoms: C_1  and  O_2
REMARK    2  A    between atoms: O_2  and  C_3
REMARK    3  A    between atoms: C_3  and  C_5
REMARK    4  A    between atoms: C_6  and  C_7
REMARK    5  A    between atoms: C_9  and  C_10
REMARK    6  A    between atoms: C_11  and  C_22
REMARK    7  A    between atoms: C_12  and  C_13
REMARK    8  A    between atoms: C_22  and  O_24
REMARK    9  A    between atoms: O_24  and  C_25
REMARK   10  A    between atoms: C_25  and  C_26
REMARK   11  A    between atoms: C_25  and  C_27
REMARK                            x       y       z     vdW  Elec       q    Type
REMARK                         _______ _______ _______ _____ _____    ______ ____
ROOT
ATOM      1  C   UNL     1       4.605   1.251   0.415  0.00  0.00    +0.000 C 
ATOM      2  C   UNL     1       5.283   0.703  -0.621  0.00  0.00    +0.000 C 
ATOM      3  C   UNL     1       4.680   0.051  -1.836  0.00  0.00    +0.000 C 
ATOM      4  N   UNL     1       6.668   0.768  -0.630  0.00  0.00    +0.000 N 
ATOM      5  C   UNL     1       7.416   1.637   0.150  0.00  0.00    +0.000 C 
ATOM      6  C   UNL     1       8.844   1.831  -0.301  0.00  0.00    +0.000 C 
ATOM      7  C   UNL     1       6.847   2.247   1.224  0.00  0.00    +0.000 C 
ATOM      8  C   UNL     1       5.388   1.906   1.579  0.00  0.00    +0.000 C 
ATOM      9  H   UNL     1       7.151   0.291  -1.388  0.00  0.00    +0.000 HD
ENDROOT
BRANCH   8  10
ATOM     10  C   UNL     1       5.385   0.942   2.751  0.00  0.00    +0.000 A 
ATOM     11  C   UNL     1       5.975  -0.354   2.655  0.00  0.00    +0.000 A 
ATOM     12  C   UNL     1       6.004  -1.296   3.707  0.00  0.00    +0.000 A 
ATOM     13  C   UNL     1       5.450  -1.033   4.967  0.00  0.00    +0.000 A 
ATOM     14  C   UNL     1       4.861   0.239   5.104  0.00  0.00    +0.000 A 
ATOM     15  N   UNL     1       4.259   0.781   6.169  0.00  0.00    +0.000 NA
ATOM     16  O   UNL     1       3.859   2.046   5.772  0.00  0.00    +0.000 OA
ATOM     17  N   UNL     1       4.204   2.308   4.459  0.00  0.00    +0.000 NA
ATOM     18  C   UNL     1       4.827   1.209   4.017  0.00  0.00    +0.000 A 
ENDBRANCH   8  10
BRANCH   1  19
ATOM     19  C   UNL     1       3.120   1.304   0.489  0.00  0.00    +0.000 C 
ATOM     20  O   UNL     1       2.508   2.313   0.821  0.00  0.00    +0.000 OA
BRANCH  19  22
ATOM     21  C   UNL     1       1.109   0.120   0.113  0.00  0.00    +0.000 C 
ATOM     22  O   UNL     1       2.544   0.113   0.172  0.00  0.00    +0.000 OA
ENDBRANCH  19  22
ENDBRANCH   1  19
BRANCH   7  23
ATOM     23  C   UNL     1       7.663   3.168   2.079  0.00  0.00    +0.000 C 
ATOM     24  O   UNL     1       8.857   3.367   1.886  0.00  0.00    +0.000 OA
BRANCH  23  25
ATOM     25  O   UNL     1       6.969   3.765   3.088  0.00  0.00    +0.000 OA
BRANCH  25  26
ATOM     26  C   UNL     1       7.744   4.687   3.910  0.00  0.00    +0.000 C 
ATOM     27  C   UNL     1       8.181   5.915   3.105  0.00  0.00    +0.000 C 
ATOM     28  C   UNL     1       6.890   5.167   5.085  0.00  0.00    +0.000 C 
ENDBRANCH  25  26
ENDBRANCH  23  25
ENDBRANCH   7  23
TORSDOF 6
