REMARK  Name = Istradefylline
REMARK  11 active torsions:
REMARK  status: ('A' for Active; 'I' for Inactive)
REMARK    1  A    between atoms: C_2  and  C_15
REMARK    2  A    between atoms: C_3  and  C_5
REMARK    3  A    between atoms: C_7  and  O_8
REMARK    4  A    between atoms: O_8  and  C_9
REMARK    5  A    between atoms: C_10  and  O_11
REMARK    6  A    between atoms: O_11  and  C_12
REMARK    7  A    between atoms: N_19  and  C_20
REMARK    8  A    between atoms: N_23  and  C_24
REMARK    9  A    between atoms: C_24  and  C_25
REMARK   10  A    between atoms: N_28  and  C_29
REMARK   11  A    between atoms: C_29  and  C_30
REMARK                            x       y       z     vdW  Elec       q    Type
REMARK                         _______ _______ _______ _____ _____    ______ ____
ROOT
ATOM      1  C   UNL     1       2.945  -1.061   0.823  0.00  0.00    +0.000 A 
ATOM      2  N   UNL     1       2.477  -2.286   0.625  0.00  0.00    +0.000 NA
ATOM      3  C   UNL     1       3.181  -3.130   1.415  0.00  0.00    +0.000 A 
ATOM      4  C   UNL     1       4.115  -2.482   2.178  0.00  0.00    +0.000 A 
ATOM      5  N   UNL     1       3.974  -1.124   1.798  0.00  0.00    +0.000 N 
ATOM      6  C   UNL     1       4.731  -0.009   2.340  0.00  0.00    +0.000 C 
ATOM      7  C   UNL     1       4.945  -3.250   3.107  0.00  0.00    +0.000 A 
ATOM      8  O   UNL     1       5.804  -2.735   3.837  0.00  0.00    +0.000 OA
ATOM      9  N   UNL     1       4.695  -4.651   3.122  0.00  0.00    +0.000 N 
ATOM     10  C   UNL     1       3.737  -5.246   2.322  0.00  0.00    +0.000 A 
ATOM     11  O   UNL     1       3.559  -6.458   2.375  0.00  0.00    +0.000 OA
ATOM     12  N   UNL     1       2.976  -4.493   1.466  0.00  0.00    +0.000 N 
ENDROOT
BRANCH   1  13
ATOM     13  C   UNL     1       2.305   0.084   0.202  0.00  0.00    +0.000 C 
ATOM     14  C   UNL     1       2.838   1.020  -0.616  0.00  0.00    +0.000 C 
BRANCH  14  15
ATOM     15  C   UNL     1       2.050   2.034  -1.424  0.00  0.00    +0.000 A 
ATOM     16  C   UNL     1       2.448   2.421  -2.727  0.00  0.00    +0.000 A 
ATOM     17  C   UNL     1       1.822   3.491  -3.432  0.00  0.00    +0.000 A 
ATOM     18  C   UNL     1       0.686   4.111  -2.885  0.00  0.00    +0.000 A 
ATOM     19  C   UNL     1       0.287   3.744  -1.600  0.00  0.00    +0.000 A 
ATOM     20  C   UNL     1       0.960   2.731  -0.882  0.00  0.00    +0.000 A 
BRANCH  17  21
ATOM     21  O   UNL     1       2.439   3.851  -4.617  0.00  0.00    +0.000 OA
ATOM     22  C   UNL     1       2.005   5.065  -5.246  0.00  0.00    +0.000 C 
ENDBRANCH  17  21
BRANCH  18  23
ATOM     23  O   UNL     1       0.021   5.026  -3.650  0.00  0.00    +0.000 OA
ATOM     24  C   UNL     1      -1.157   5.648  -3.173  0.00  0.00    +0.000 C 
ENDBRANCH  18  23
ENDBRANCH  14  15
ENDBRANCH   1  13
BRANCH   9  25
ATOM     25  C   UNL     1       5.474  -5.567   4.026  0.00  0.00    +0.000 C 
ATOM     26  C   UNL     1       5.178  -7.098   4.017  0.00  0.00    +0.000 C 
ENDBRANCH   9  25
BRANCH  12  27
ATOM     27  C   UNL     1       1.958  -5.145   0.616  0.00  0.00    +0.000 C 
ATOM     28  C   UNL     1       1.792  -6.673   0.727  0.00  0.00    +0.000 C 
ENDBRANCH  12  27
TORSDOF 6
