REMARK  Name = Ivabradine
REMARK  15 active torsions:
REMARK  status: ('A' for Active; 'I' for Inactive)
REMARK    1  A    between atoms: C_1  and  O_2
REMARK    2  A    between atoms: O_2  and  C_3
REMARK    3  A    between atoms: C_4  and  O_5
REMARK    4  A    between atoms: O_5  and  C_6
REMARK    5  A    between atoms: C_9  and  C_10
REMARK    6  A    between atoms: C_10  and  N_11
REMARK    7  A    between atoms: N_11  and  C_12
REMARK    8  A    between atoms: N_11  and  C_13
REMARK    9  A    between atoms: C_13  and  C_14
REMARK   10  A    between atoms: C_14  and  C_15
REMARK   11  A    between atoms: C_15  and  N_16
REMARK   12  A    between atoms: C_21  and  O_22
REMARK   13  A    between atoms: O_22  and  C_23
REMARK   14  A    between atoms: C_24  and  O_25
REMARK   15  A    between atoms: O_25  and  C_26
REMARK                            x       y       z     vdW  Elec       q    Type
REMARK                         _______ _______ _______ _____ _____    ______ ____
ROOT
ATOM      1  C   UNL     1       6.354   2.575  -8.024  0.00  0.00    +0.000 C 
ENDROOT
BRANCH   1   2
ATOM      2  C   UNL     1       6.949   1.858  -6.810  0.00  0.00    +0.000 C 
BRANCH   2   3
ATOM      3  N   UNL     1       5.965   0.919  -6.259  0.00  0.00    +0.000 NA
ATOM      4  C   UNL     1       4.740   1.624  -5.911  0.00  0.00    +0.000 C 
BRANCH   3   5
ATOM      5  C   UNL     1       6.502   0.193  -5.082  0.00  0.00    +0.000 C 
BRANCH   5  10
ATOM      6  C   UNL     1       3.132  -0.084  -1.086  0.00  0.00    +0.000 A 
ATOM      7  C   UNL     1       2.731   0.724  -2.169  0.00  0.00    +0.000 A 
ATOM      8  C   UNL     1       3.380   0.567  -3.394  0.00  0.00    +0.000 A 
ATOM      9  C   UNL     1       4.453  -0.288  -3.536  0.00  0.00    +0.000 A 
ATOM     10  C   UNL     1       5.500  -0.827  -4.499  0.00  0.00    +0.000 C 
ATOM     11  C   UNL     1       6.021  -1.649  -3.261  0.00  0.00    +0.000 C 
ATOM     12  C   UNL     1       4.890  -1.026  -2.481  0.00  0.00    +0.000 A 
ATOM     13  C   UNL     1       4.254  -0.944  -1.255  0.00  0.00    +0.000 A 
BRANCH   6  15
ATOM     14  C   UNL     1       1.279  -0.287   0.427  0.00  0.00    +0.000 C 
ATOM     15  O   UNL     1       2.669  -0.061   0.208  0.00  0.00    +0.000 OA
ENDBRANCH   6  15
BRANCH   7  16
ATOM     16  O   UNL     1       1.843   1.760  -2.307  0.00  0.00    +0.000 OA
ATOM     17  C   UNL     1       0.962   2.007  -1.254  0.00  0.00    +0.000 C 
ENDBRANCH   7  16
ENDBRANCH   5  10
ENDBRANCH   3   5
ENDBRANCH   2   3
ENDBRANCH   1   2
BRANCH   1  18
ATOM     18  C   UNL     1       7.307   3.560  -8.664  0.00  0.00    +0.000 C 
BRANCH  18  19
ATOM     19  N   UNL     1       6.587   4.361  -9.656  0.00  0.00    +0.000 N 
ATOM     20  C   UNL     1       6.963   5.758  -9.790  0.00  0.00    +0.000 C 
ATOM     21  C   UNL     1       5.744   6.653  -9.618  0.00  0.00    +0.000 C 
ATOM     22  C   UNL     1       5.063   6.816 -10.953  0.00  0.00    +0.000 A 
ATOM     23  C   UNL     1       5.152   8.040 -11.633  0.00  0.00    +0.000 A 
ATOM     24  C   UNL     1       4.582   8.215 -12.899  0.00  0.00    +0.000 A 
ATOM     25  C   UNL     1       3.891   7.142 -13.487  0.00  0.00    +0.000 A 
ATOM     26  C   UNL     1       3.818   5.909 -12.814  0.00  0.00    +0.000 A 
ATOM     27  C   UNL     1       4.430   5.722 -11.563  0.00  0.00    +0.000 A 
ATOM     28  C   UNL     1       4.449   4.365 -10.892  0.00  0.00    +0.000 C 
ATOM     29  C   UNL     1       5.860   3.767 -10.701  0.00  0.00    +0.000 C 
ATOM     30  O   UNL     1       6.238   2.782 -11.305  0.00  0.00    +0.000 OA
BRANCH  24  31
ATOM     31  O   UNL     1       4.793   9.471 -13.420  0.00  0.00    +0.000 OA
ATOM     32  C   UNL     1       4.249   9.764 -14.704  0.00  0.00    +0.000 C 
ENDBRANCH  24  31
BRANCH  25  33
ATOM     33  O   UNL     1       3.336   7.363 -14.715  0.00  0.00    +0.000 OA
ATOM     34  C   UNL     1       2.623   6.330 -15.363  0.00  0.00    +0.000 C 
ENDBRANCH  25  33
ENDBRANCH  18  19
ENDBRANCH   1  18
TORSDOF 10
