REMARK  Name = Ivacaftor
REMARK  11 active torsions:
REMARK  status: ('A' for Active; 'I' for Inactive)
REMARK    1  A    between atoms: C_1  and  C_2
REMARK    2  A    between atoms: C_2  and  C_3
REMARK    3  A    between atoms: C_2  and  C_4
REMARK    4  A    between atoms: C_2  and  C_5
REMARK    5  A    between atoms: C_7  and  C_26
REMARK    6  A    between atoms: C_8  and  O_9
REMARK    7  A    between atoms: C_11  and  N_12
REMARK    8  A    between atoms: C_13  and  C_15
REMARK    9  A    between atoms: C_26  and  C_27
REMARK   10  A    between atoms: C_26  and  C_28
REMARK   11  A    between atoms: C_26  and  C_29
REMARK                            x       y       z     vdW  Elec       q    Type
REMARK                         _______ _______ _______ _____ _____    ______ ____
ROOT
ATOM      1  C   UNL     1       2.891  -1.358   0.423  0.00  0.00    +0.000 A 
ATOM      2  C   UNL     1       2.287  -2.572   0.010  0.00  0.00    +0.000 A 
ATOM      3  C   UNL     1       2.683  -3.853   0.439  0.00  0.00    +0.000 A 
ATOM      4  C   UNL     1       3.771  -3.868   1.322  0.00  0.00    +0.000 A 
ATOM      5  C   UNL     1       4.428  -2.681   1.706  0.00  0.00    +0.000 A 
ATOM      6  C   UNL     1       4.065  -1.422   1.212  0.00  0.00    +0.000 A 
ENDROOT
BRANCH   1   8
ATOM      7  C   UNL     1       0.659  -0.125  -0.136  0.00  0.00    +0.000 C 
ATOM      8  C   UNL     1       2.185  -0.071  -0.036  0.00  0.00    +0.000 C 
ATOM      9  C   UNL     1       2.778   0.232  -1.439  0.00  0.00    +0.000 C 
ATOM     10  C   UNL     1       2.246   1.013   1.047  0.00  0.00    +0.000 C 
ENDBRANCH   1   8
BRANCH   6  11
ATOM     11  N   UNL     1       4.887  -0.316   1.625  0.00  0.00    +0.000 N 
ATOM     12  C   UNL     1       4.969   0.955   1.041  0.00  0.00    +0.000 C 
ATOM     13  O   UNL     1       4.752   1.317  -0.102  0.00  0.00    +0.000 OA
ATOM     14  H   UNL     1       5.495  -0.479   2.422  0.00  0.00    +0.000 HD
BRANCH  12  15
ATOM     15  C   UNL     1       5.332   2.058   1.939  0.00  0.00    +0.000 A 
ATOM     16  C   UNL     1       4.605   3.153   2.286  0.00  0.00    +0.000 A 
ATOM     17  N   UNL     1       5.177   4.318   2.775  0.00  0.00    +0.000 N 
ATOM     18  C   UNL     1       6.575   4.436   2.771  0.00  0.00    +0.000 A 
ATOM     19  C   UNL     1       7.244   5.562   3.210  0.00  0.00    +0.000 A 
ATOM     20  C   UNL     1       8.648   5.542   3.287  0.00  0.00    +0.000 A 
ATOM     21  C   UNL     1       9.396   4.419   2.914  0.00  0.00    +0.000 A 
ATOM     22  C   UNL     1       8.751   3.304   2.458  0.00  0.00    +0.000 A 
ATOM     23  C   UNL     1       7.371   3.331   2.419  0.00  0.00    +0.000 A 
ATOM     24  C   UNL     1       6.764   2.104   2.012  0.00  0.00    +0.000 A 
ATOM     25  O   UNL     1       7.441   1.116   1.669  0.00  0.00    +0.000 OA
ATOM     26  H   UNL     1       4.610   5.162   2.859  0.00  0.00    +0.000 HD
ENDBRANCH  12  15
ENDBRANCH   6  11
BRANCH   3  27
ATOM     27  C   UNL     1       1.842  -5.032  -0.095  0.00  0.00    +0.000 C 
ATOM     28  C   UNL     1       0.362  -4.885   0.336  0.00  0.00    +0.000 C 
ATOM     29  C   UNL     1       1.899  -5.086  -1.640  0.00  0.00    +0.000 C 
ATOM     30  C   UNL     1       2.309  -6.396   0.410  0.00  0.00    +0.000 C 
ENDBRANCH   3  27
BRANCH   4  31
ATOM     31  O   UNL     1       4.355  -4.954   1.911  0.00  0.00    +0.000 OA
ATOM     32  H   UNL     1       4.014  -5.790   1.589  0.00  0.00    +0.000 HD
ENDBRANCH   4  31
TORSDOF 5
