REMARK  Name = Ivosidenib
REMARK  7 active torsions:
REMARK  status: ('A' for Active; 'I' for Inactive)
REMARK    1  A    between atoms: C_2  and  N_3
REMARK    2  A    between atoms: C_2  and  C_28
REMARK    3  A    between atoms: C_2  and  C_37
REMARK    4  A    between atoms: N_3  and  C_21
REMARK    5  A    between atoms: C_4  and  C_6
REMARK    6  A    between atoms: C_17  and  C_19
REMARK    7  A    between atoms: N_30  and  C_31
REMARK                            x       y       z     vdW  Elec       q    Type
REMARK                         _______ _______ _______ _____ _____    ______ ____
ROOT
ATOM      1  N   UNL     1       2.547   0.281  -1.361  0.00  0.00    +0.000 N 
ATOM      2  C   UNL     1       3.406   1.320  -1.734  0.00  0.00    +0.000 C 
ATOM      3  O   UNL     1       3.647   1.570  -2.924  0.00  0.00    +0.000 OA
ENDROOT
BRANCH   2   4
ATOM      4  C   UNL     1       4.033   2.260  -0.726  0.00  0.00    +0.000 C 
ATOM      5  C   UNL     1       3.486   3.647  -1.002  0.00  0.00    +0.000 C 
ATOM      6  C   UNL     1       4.518   4.525  -0.302  0.00  0.00    +0.000 C 
ATOM      7  C   UNL     1       5.790   3.799  -0.478  0.00  0.00    +0.000 C 
ATOM      8  O   UNL     1       6.882   4.313  -0.320  0.00  0.00    +0.000 OA
ATOM      9  N   UNL     1       5.449   2.496  -0.771  0.00  0.00    +0.000 N 
ATOM     10  C   UNL     1       6.309   1.435  -0.589  0.00  0.00    +0.000 A 
ATOM     11  N   UNL     1       7.074   1.314   0.508  0.00  0.00    +0.000 NA
ATOM     12  C   UNL     1       7.981   0.316   0.495  0.00  0.00    +0.000 A 
ATOM     13  C   UNL     1       8.134  -0.564  -0.565  0.00  0.00    +0.000 A 
ATOM     14  C   UNL     1       7.290  -0.430  -1.654  0.00  0.00    +0.000 A 
ATOM     15  C   UNL     1       6.357   0.574  -1.658  0.00  0.00    +0.000 A 
BRANCH  14  16
ATOM     16  C   UNL     1       7.387  -1.268  -2.814  0.00  0.00    +0.000 C 
ATOM     17  N   UNL     1       7.432  -1.921  -3.753  0.00  0.00    +0.000 NA
ENDBRANCH  14  16
ENDBRANCH   2   4
BRANCH   1  18
ATOM     18  C   UNL     1       2.193  -0.601  -2.475  0.00  0.00    +0.000 A 
ATOM     19  C   UNL     1       0.894  -1.019  -2.732  0.00  0.00    +0.000 A 
ATOM     20  C   UNL     1       0.629  -1.874  -3.806  0.00  0.00    +0.000 A 
ATOM     21  F   UNL     1      -0.600  -2.379  -3.974  0.00  0.00    +0.000 F 
ATOM     22  C   UNL     1       1.645  -2.215  -4.675  0.00  0.00    +0.000 A 
ATOM     23  N   UNL     1       2.911  -1.794  -4.509  0.00  0.00    +0.000 NA
ATOM     24  C   UNL     1       3.149  -1.017  -3.420  0.00  0.00    +0.000 A 
ENDBRANCH   1  18
BRANCH   1  25
ATOM     25  C   UNL     1       2.031  -0.079   0.053  0.00  0.00    +0.000 C 
BRANCH  25  26
ATOM     26  C   UNL     1       2.495  -1.492   0.507  0.00  0.00    +0.000 A 
ATOM     27  C   UNL     1       1.809  -2.678   0.165  0.00  0.00    +0.000 A 
ATOM     28 CL   UNL     1       0.215  -2.763  -0.487  0.00  0.00    +0.000 Cl
ATOM     29  C   UNL     1       2.292  -3.939   0.518  0.00  0.00    +0.000 A 
ATOM     30  C   UNL     1       3.351  -4.063   1.397  0.00  0.00    +0.000 A 
ATOM     31  C   UNL     1       3.997  -2.922   1.839  0.00  0.00    +0.000 A 
ATOM     32  C   UNL     1       3.628  -1.667   1.339  0.00  0.00    +0.000 A 
ENDBRANCH  25  26
BRANCH  25  33
ATOM     33  C   UNL     1       2.251   1.018   1.208  0.00  0.00    +0.000 C 
ATOM     34  O   UNL     1       2.941   0.836   2.212  0.00  0.00    +0.000 OA
ATOM     35  N   UNL     1       1.766   2.311   0.973  0.00  0.00    +0.000 N 
ATOM     36  H   UNL     1       1.278   2.450   0.095  0.00  0.00    +0.000 HD
BRANCH  35  37
ATOM     37  C   UNL     1       2.395   3.504   1.727  0.00  0.00    +0.000 C 
ATOM     38  C   UNL     1       2.220   5.004   1.152  0.00  0.00    +0.000 C 
ATOM     39  C   UNL     1       2.053   5.420   2.601  0.00  0.00    +0.000 C 
ATOM     40  F   UNL     1       1.256   6.494   2.745  0.00  0.00    +0.000 F 
ATOM     41  F   UNL     1       3.215   5.691   3.244  0.00  0.00    +0.000 F 
ATOM     42  C   UNL     1       1.462   4.013   2.818  0.00  0.00    +0.000 C 
ENDBRANCH  35  37
ENDBRANCH  25  33
ENDBRANCH   1  25
TORSDOF 7
