REMARK  Name = Ixabepilone
REMARK  11 active torsions:
REMARK  status: ('A' for Active; 'I' for Inactive)
REMARK    1  A    between atoms: C_4  and  C_28
REMARK    2  A    between atoms: C_9  and  O_10
REMARK    3  A    between atoms: C_11  and  C_12
REMARK    4  A    between atoms: C_11  and  C_13
REMARK    5  A    between atoms: C_16  and  C_17
REMARK    6  A    between atoms: C_18  and  O_19
REMARK    7  A    between atoms: C_20  and  C_21
REMARK    8  A    between atoms: C_25  and  C_26
REMARK    9  A    between atoms: C_28  and  C_29
REMARK   10  A    between atoms: C_30  and  C_31
REMARK   11  A    between atoms: C_34  and  C_35
REMARK                            x       y       z     vdW  Elec       q    Type
REMARK                         _______ _______ _______ _____ _____    ______ ____
ROOT
ATOM      1  C   UNL     1       2.409   0.110  -0.483  0.00  0.00    +0.000 C 
ATOM      2  C   UNL     1       2.254   0.589   1.028  0.00  0.00    +0.000 C 
ATOM      3  C   UNL     1       0.986   1.550   1.330  0.00  0.00    +0.000 C 
ATOM      4  N   UNL     1       1.439   2.902   1.562  0.00  0.00    +0.000 N 
ATOM      5  C   UNL     1       0.640   4.009   1.321  0.00  0.00    +0.000 C 
ATOM      6  O   UNL     1      -0.552   3.990   1.178  0.00  0.00    +0.000 OA
ATOM      7  C   UNL     1       1.425   5.306   1.259  0.00  0.00    +0.000 C 
ATOM      8  C   UNL     1       2.306   5.366   0.015  0.00  0.00    +0.000 C 
ATOM      9  C   UNL     1       3.092   6.706  -0.389  0.00  0.00    +0.000 C 
ATOM     10  C   UNL     1       3.706   8.125  -0.021  0.00  0.00    +0.000 C 
ATOM     11  C   UNL     1       1.698   7.404  -0.367  0.00  0.00    +0.000 C 
ATOM     12  C   UNL     1       4.476   6.102  -0.971  0.00  0.00    +0.000 C 
ATOM     13  O   UNL     1       5.562   6.424  -0.449  0.00  0.00    +0.000 OA
ATOM     14  C   UNL     1       4.532   4.852  -1.827  0.00  0.00    +0.000 C 
ATOM     15  C   UNL     1       5.018   3.675  -0.942  0.00  0.00    +0.000 C 
ATOM     16  C   UNL     1       5.462   4.895  -3.059  0.00  0.00    +0.000 C 
ATOM     17  C   UNL     1       5.299   3.570  -3.850  0.00  0.00    +0.000 C 
ATOM     18  C   UNL     1       5.794   3.758  -5.275  0.00  0.00    +0.000 C 
ATOM     19  C   UNL     1       6.070   2.359  -3.237  0.00  0.00    +0.000 C 
ATOM     20  C   UNL     1       5.238   1.097  -3.313  0.00  0.00    +0.000 C 
ATOM     21  C   UNL     1       5.096   0.302  -1.964  0.00  0.00    +0.000 C 
ATOM     22  C   UNL     1       3.634  -0.159  -1.770  0.00  0.00    +0.000 C 
ATOM     23  C   UNL     1       3.298  -1.008  -3.019  0.00  0.00    +0.000 C 
ATOM     24  O   UNL     1       3.456  -0.864  -0.556  0.00  0.00    +0.000 OA
ATOM     25  H   UNL     1       2.321   3.034   2.030  0.00  0.00    +0.000 HD
ENDROOT
BRANCH   3  26
ATOM     26  C   UNL     1       0.009   1.213   2.499  0.00  0.00    +0.000 C 
ATOM     27  C   UNL     1      -0.876   0.023   2.221  0.00  0.00    +0.000 C 
ATOM     28  C   UNL     1      -0.215   1.990   3.599  0.00  0.00    +0.000 C 
BRANCH  28  29
ATOM     29  C   UNL     1      -1.184   1.762   4.629  0.00  0.00    +0.000 A 
ATOM     30  C   UNL     1      -2.051   2.707   5.139  0.00  0.00    +0.000 A 
ATOM     31  S   UNL     1      -3.107   1.955   6.270  0.00  0.00    +0.000 S 
ATOM     32  C   UNL     1      -2.298   0.461   6.013  0.00  0.00    +0.000 A 
ATOM     33  C   UNL     1      -2.742  -0.786   6.692  0.00  0.00    +0.000 C 
ATOM     34  N   UNL     1      -1.284   0.504   5.179  0.00  0.00    +0.000 NA
ENDBRANCH  28  29
ENDBRANCH   3  26
BRANCH   8  35
ATOM     35  O   UNL     1       3.086   4.247   0.254  0.00  0.00    +0.000 OA
ATOM     36  H   UNL     1       3.672   4.479   0.989  0.00  0.00    +0.000 HD
ENDBRANCH   8  35
BRANCH  16  37
ATOM     37  O   UNL     1       6.842   5.065  -2.745  0.00  0.00    +0.000 OA
ATOM     38  H   UNL     1       7.122   4.375  -2.122  0.00  0.00    +0.000 HD
ENDBRANCH  16  37
TORSDOF 4
