REMARK  Name = Kanamycin
REMARK  17 active torsions:
REMARK  status: ('A' for Active; 'I' for Inactive)
REMARK    1  A    between atoms: N_1  and  C_2
REMARK    2  A    between atoms: C_2  and  C_3
REMARK    3  A    between atoms: C_5  and  O_6
REMARK    4  A    between atoms: O_6  and  C_7
REMARK    5  A    between atoms: C_8  and  N_9
REMARK    6  A    between atoms: C_11  and  N_12
REMARK    7  A    between atoms: C_13  and  O_14
REMARK    8  A    between atoms: O_14  and  C_15
REMARK    9  A    between atoms: C_17  and  C_18
REMARK   10  A    between atoms: C_18  and  O_19
REMARK   11  A    between atoms: C_20  and  O_21
REMARK   12  A    between atoms: C_22  and  N_23
REMARK   13  A    between atoms: C_24  and  O_25
REMARK   14  A    between atoms: C_26  and  O_27
REMARK   15  A    between atoms: C_28  and  O_29
REMARK   16  A    between atoms: C_30  and  O_31
REMARK   17  A    between atoms: C_32  and  O_33
REMARK                            x       y       z     vdW  Elec       q    Type
REMARK                         _______ _______ _______ _____ _____    ______ ____
ROOT
ATOM      1  C   UNL     1       5.876  -5.373   2.146  0.00  0.00    +0.000 C 
ATOM      2  C   UNL     1       4.218  -5.786   2.453  0.00  0.00    +0.000 C 
ATOM      3  C   UNL     1       3.174  -4.468   2.891  0.00  0.00    +0.000 C 
ATOM      4  C   UNL     1       3.943  -3.381   3.699  0.00  0.00    +0.000 C 
ATOM      5  C   UNL     1       5.546  -3.172   3.531  0.00  0.00    +0.000 C 
ATOM      6  C   UNL     1       6.373  -4.482   3.318  0.00  0.00    +0.000 C 
ENDROOT
BRANCH   2   7
ATOM      7  N   UNL     1       3.912  -6.788   3.466  0.00  0.00    +0.000 NA
ATOM      8  H   UNL     1       3.903  -6.412   4.398  0.00  0.00    +0.000 HD
ATOM      9  H   UNL     1       4.536  -7.586   3.420  0.00  0.00    +0.000 HD
ENDBRANCH   2   7
BRANCH   4  10
ATOM     10  N   UNL     1       3.491  -3.755   5.029  0.00  0.00    +0.000 NA
ATOM     11  H   UNL     1       3.825  -4.690   5.214  0.00  0.00    +0.000 HD
ATOM     12  H   UNL     1       2.475  -3.893   4.949  0.00  0.00    +0.000 HD
ENDBRANCH   4  10
BRANCH   6  13
ATOM     13  O   UNL     1       6.378  -5.254   4.529  0.00  0.00    +0.000 OA
ATOM     14  H   UNL     1       5.459  -5.401   4.780  0.00  0.00    +0.000 HD
ENDBRANCH   6  13
BRANCH   5  15
ATOM     15  O   UNL     1       6.108  -2.228   2.572  0.00  0.00    +0.000 OA
BRANCH  15  16
ATOM     16  C   UNL     1       5.391  -1.110   2.091  0.00  0.00    +0.000 C 
ATOM     17  O   UNL     1       5.618  -0.102   3.034  0.00  0.00    +0.000 OA
ATOM     18  C   UNL     1       4.886   1.085   2.761  0.00  0.00    +0.000 C 
ATOM     19  C   UNL     1       5.265   1.673   1.381  0.00  0.00    +0.000 C 
ATOM     20  C   UNL     1       4.993   0.688   0.243  0.00  0.00    +0.000 C 
ATOM     21  C   UNL     1       5.739  -0.595   0.614  0.00  0.00    +0.000 C 
BRANCH  20  22
ATOM     22  N   UNL     1       3.560   0.451  -0.010  0.00  0.00    +0.000 NA
ATOM     23  H   UNL     1       3.095   0.196   0.872  0.00  0.00    +0.000 HD
ATOM     24  H   UNL     1       3.386  -0.351  -0.609  0.00  0.00    +0.000 HD
ENDBRANCH  20  22
BRANCH  19  25
ATOM     25  O   UNL     1       6.665   2.030   1.388  0.00  0.00    +0.000 OA
ATOM     26  H   UNL     1       7.186   1.255   1.670  0.00  0.00    +0.000 HD
ENDBRANCH  19  25
BRANCH  21  27
ATOM     27  O   UNL     1       7.132  -0.457   0.338  0.00  0.00    +0.000 OA
ATOM     28  H   UNL     1       7.626  -0.569   1.164  0.00  0.00    +0.000 HD
ENDBRANCH  21  27
BRANCH  18  29
ATOM     29  C   UNL     1       3.375   0.897   3.066  0.00  0.00    +0.000 C 
BRANCH  29  30
ATOM     30  O   UNL     1       2.618  -0.021   2.266  0.00  0.00    +0.000 OA
ATOM     31  H   UNL     1       2.618  -0.912   2.656  0.00  0.00    +0.000 HD
ENDBRANCH  29  30
ENDBRANCH  18  29
ENDBRANCH  15  16
ENDBRANCH   5  15
BRANCH   1  32
ATOM     32  O   UNL     1       6.325  -4.933   0.697  0.00  0.00    +0.000 OA
BRANCH  32  35
ATOM     33  C   UNL     1       5.751  -3.691  -2.017  0.00  0.00    +0.000 C 
ATOM     34  O   UNL     1       6.488  -2.987  -1.040  0.00  0.00    +0.000 OA
ATOM     35  C   UNL     1       6.055  -3.513   0.240  0.00  0.00    +0.000 C 
ATOM     36  C   UNL     1       4.556  -3.327   0.124  0.00  0.00    +0.000 C 
ATOM     37  C   UNL     1       3.828  -4.247  -0.810  0.00  0.00    +0.000 C 
ATOM     38  C   UNL     1       4.202  -3.634  -2.095  0.00  0.00    +0.000 C 
BRANCH  38  39
ATOM     39  O   UNL     1       3.646  -4.512  -3.059  0.00  0.00    +0.000 OA
ATOM     40  H   UNL     1       4.024  -5.399  -2.877  0.00  0.00    +0.000 HD
ENDBRANCH  38  39
BRANCH  37  41
ATOM     41  O   UNL     1       2.439  -4.327  -0.466  0.00  0.00    +0.000 OA
ATOM     42  H   UNL     1       1.999  -3.476  -0.630  0.00  0.00    +0.000 HD
ENDBRANCH  37  41
BRANCH  36  43
ATOM     43  O   UNL     1       4.264  -3.949   1.295  0.00  0.00    +0.000 OA
ATOM     44  H   UNL     1       3.648  -4.624   0.977  0.00  0.00    +0.000 HD
ENDBRANCH  36  43
BRANCH  33  45
ATOM     45  C   UNL     1       6.392  -4.004  -3.322  0.00  0.00    +0.000 C 
BRANCH  45  46
ATOM     46  N   UNL     1       7.470  -4.971  -3.065  0.00  0.00    +0.000 NA
ATOM     47  H   UNL     1       8.349  -4.481  -2.950  0.00  0.00    +0.000 HD
ATOM     48  H   UNL     1       7.346  -5.409  -2.138  0.00  0.00    +0.000 HD
ENDBRANCH  45  46
ENDBRANCH  33  45
ENDBRANCH  32  35
ENDBRANCH   1  32
TORSDOF 17
