REMARK  Name = Kappadione
REMARK  5 active torsions:
REMARK  status: ('A' for Active; 'I' for Inactive)
REMARK    1  A    between atoms: C_5  and  C_6
REMARK    2  A    between atoms: C_7  and  O_8
REMARK    3  A    between atoms: O_8  and  P_9
REMARK    4  A    between atoms: C_19  and  O_20
REMARK    5  A    between atoms: O_20  and  P_21
REMARK                            x       y       z     vdW  Elec       q    Type
REMARK                         _______ _______ _______ _____ _____    ______ ____
ROOT
ATOM      1 NA   UNL     1       1.429   2.612  -2.371  0.00  0.00    +0.000 Na
ENDROOT
TORSDOF 0
REMARK  Name = Kappadione
REMARK  5 active torsions:
REMARK  status: ('A' for Active; 'I' for Inactive)
REMARK    1  A    between atoms: C_5  and  C_6
REMARK    2  A    between atoms: C_7  and  O_8
REMARK    3  A    between atoms: O_8  and  P_9
REMARK    4  A    between atoms: C_19  and  O_20
REMARK    5  A    between atoms: O_20  and  P_21
REMARK                            x       y       z     vdW  Elec       q    Type
REMARK                         _______ _______ _______ _____ _____    ______ ____
ROOT
ATOM      1 NA   UNL     2       0.991  -0.255   3.083  0.00  0.00    +0.000 Na
ENDROOT
TORSDOF 0
REMARK  Name = Kappadione
REMARK  5 active torsions:
REMARK  status: ('A' for Active; 'I' for Inactive)
REMARK    1  A    between atoms: C_5  and  C_6
REMARK    2  A    between atoms: C_7  and  O_8
REMARK    3  A    between atoms: O_8  and  P_9
REMARK    4  A    between atoms: C_19  and  O_20
REMARK    5  A    between atoms: O_20  and  P_21
REMARK                            x       y       z     vdW  Elec       q    Type
REMARK                         _______ _______ _______ _____ _____    ______ ____
ROOT
ATOM      1 NA   UNL     3       1.371  -1.431  -2.166  0.00  0.00    +0.000 Na
ENDROOT
TORSDOF 0
REMARK  Name = Kappadione
REMARK  5 active torsions:
REMARK  status: ('A' for Active; 'I' for Inactive)
REMARK    1  A    between atoms: C_5  and  C_6
REMARK    2  A    between atoms: C_7  and  O_8
REMARK    3  A    between atoms: O_8  and  P_9
REMARK    4  A    between atoms: C_19  and  O_20
REMARK    5  A    between atoms: O_20  and  P_21
REMARK                            x       y       z     vdW  Elec       q    Type
REMARK                         _______ _______ _______ _____ _____    ______ ____
ROOT
ATOM      1 NA   UNL     4      -2.413   0.043  -2.188  0.00  0.00    +0.000 Na
ENDROOT
TORSDOF 0
REMARK  Name = Kappadione
REMARK  5 active torsions:
REMARK  status: ('A' for Active; 'I' for Inactive)
REMARK    1  A    between atoms: C_5  and  C_6
REMARK    2  A    between atoms: C_7  and  O_8
REMARK    3  A    between atoms: O_8  and  P_9
REMARK    4  A    between atoms: C_19  and  O_20
REMARK    5  A    between atoms: O_20  and  P_21
REMARK                            x       y       z     vdW  Elec       q    Type
REMARK                         _______ _______ _______ _____ _____    ______ ____
ROOT
ATOM      1  C   UNL     5      -3.737  -0.404   0.205  0.00  0.00    +0.000 C 
ATOM      2  C   UNL     5      -2.228  -0.211   0.329  0.00  0.00    +0.000 A 
ATOM      3  C   UNL     5      -1.158  -1.131   0.252  0.00  0.00    +0.000 A 
ATOM      4  C   UNL     5       0.204  -0.642   0.320  0.00  0.00    +0.000 A 
ATOM      5  C   UNL     5       1.317  -1.546   0.353  0.00  0.00    +0.000 A 
ATOM      6  C   UNL     5       2.643  -1.073   0.293  0.00  0.00    +0.000 A 
ATOM      7  C   UNL     5       2.886   0.286   0.249  0.00  0.00    +0.000 A 
ATOM      8  C   UNL     5       1.820   1.205   0.281  0.00  0.00    +0.000 A 
ATOM      9  C   UNL     5       0.464   0.763   0.294  0.00  0.00    +0.000 A 
ATOM     10  C   UNL     5      -0.620   1.685   0.248  0.00  0.00    +0.000 A 
ATOM     11  C   UNL     5      -1.913   1.148   0.339  0.00  0.00    +0.000 A 
ENDROOT
BRANCH   3  12
ATOM     12  O   UNL     5      -1.313  -2.489  -0.058  0.00  0.00    +0.000 OA
BRANCH  12  13
ATOM     13  P   UNL     5      -2.929  -3.105  -0.078  0.00  0.00    +0.000 P 
ATOM     14  O   UNL     5      -2.876  -2.461  -1.528  0.00  0.00    +0.000 OA
ATOM     15  O   UNL     5      -2.199  -4.422   0.227  0.00  0.00    +0.000 OA
ATOM     16  O   UNL     5      -4.376  -3.657  -0.096  0.00  0.00    +0.000 OA
ENDBRANCH  12  13
ENDBRANCH   3  12
BRANCH  10  17
ATOM     17  O   UNL     5      -0.458   3.083   0.005  0.00  0.00    +0.000 OA
BRANCH  17  18
ATOM     18  P   UNL     5      -1.824   4.144   0.014  0.00  0.00    +0.000 P 
ATOM     19  O   UNL     5      -2.166   3.327  -1.276  0.00  0.00    +0.000 OA
ATOM     20  O   UNL     5      -1.919   3.705   1.483  0.00  0.00    +0.000 OA
ATOM     21  O   UNL     5      -3.047   5.094   0.023  0.00  0.00    +0.000 OA
ENDBRANCH  17  18
ENDBRANCH  10  17
TORSDOF 4
