REMARK  Name = Kava
REMARK  4 active torsions:
REMARK  status: ('A' for Active; 'I' for Inactive)
REMARK    1  A    between atoms: C_1  and  O_2
REMARK    2  A    between atoms: O_2  and  C_3
REMARK    3  A    between atoms: C_8  and  C_10
REMARK    4  A    between atoms: C_11  and  C_12
REMARK                            x       y       z     vdW  Elec       q    Type
REMARK                         _______ _______ _______ _____ _____    ______ ____
ROOT
ATOM      1  C   UNL     1       3.159  -1.250  -0.142  0.00  0.00    +0.000 C 
ATOM      2  C   UNL     1       4.216  -1.496   0.640  0.00  0.00    +0.000 C 
ATOM      3  C   UNL     1       4.858  -2.821   0.661  0.00  0.00    +0.000 C 
ATOM      4  O   UNL     1       5.624  -3.126   1.564  0.00  0.00    +0.000 OA
ATOM      5  O   UNL     1       4.519  -3.685  -0.328  0.00  0.00    +0.000 OA
ATOM      6  C   UNL     1       3.887  -3.170  -1.513  0.00  0.00    +0.000 C 
ATOM      7  C   UNL     1       2.714  -2.256  -1.155  0.00  0.00    +0.000 C 
ENDROOT
BRANCH   1   9
ATOM      8  C   UNL     1       1.112  -0.076  -0.067  0.00  0.00    +0.000 C 
ATOM      9  O   UNL     1       2.539  -0.015  -0.102  0.00  0.00    +0.000 OA
ENDBRANCH   1   9
BRANCH   6  10
ATOM     10  C   UNL     1       3.414  -4.337  -2.337  0.00  0.00    +0.000 C 
ATOM     11  C   UNL     1       4.219  -5.317  -2.774  0.00  0.00    +0.000 C 
BRANCH  11  12
ATOM     12  C   UNL     1       3.753  -6.453  -3.552  0.00  0.00    +0.000 C 
ATOM     13  C   UNL     1       4.302  -7.656  -3.292  0.00  0.00    +0.000 C 
ATOM     14  C   UNL     1       3.993  -8.888  -4.095  0.00  0.00    +0.000 C 
ATOM     15  C   UNL     1       2.687  -8.809  -4.898  0.00  0.00    +0.000 C 
ATOM     16  C   UNL     1       2.321  -7.412  -5.302  0.00  0.00    +0.000 C 
ATOM     17  C   UNL     1       2.828  -6.339  -4.676  0.00  0.00    +0.000 C 
ENDBRANCH  11  12
ENDBRANCH   6  10
TORSDOF 3
