REMARK  Name = Ketamine
REMARK  3 active torsions:
REMARK  status: ('A' for Active; 'I' for Inactive)
REMARK    1  A    between atoms: C_1  and  N_2
REMARK    2  A    between atoms: N_2  and  C_3
REMARK    3  A    between atoms: C_3  and  C_10
REMARK                            x       y       z     vdW  Elec       q    Type
REMARK                         _______ _______ _______ _____ _____    ______ ____
ROOT
ATOM      1  C   UNL     1       2.932  -1.264  -0.615  0.00  0.00    +0.000 C 
ATOM      2  C   UNL     1       4.346  -1.651  -0.004  0.00  0.00    +0.000 C 
ATOM      3  C   UNL     1       4.850  -3.042  -0.440  0.00  0.00    +0.000 C 
ATOM      4  C   UNL     1       3.875  -4.115  -0.011  0.00  0.00    +0.000 C 
ATOM      5  C   UNL     1       2.506  -3.864  -0.605  0.00  0.00    +0.000 C 
ATOM      6  C   UNL     1       1.990  -2.483  -0.301  0.00  0.00    +0.000 C 
ATOM      7  O   UNL     1       0.809  -2.405   0.069  0.00  0.00    +0.000 OA
ENDROOT
BRANCH   1   8
ATOM      8  C   UNL     1       3.048  -1.040  -2.160  0.00  0.00    +0.000 A 
ATOM      9  C   UNL     1       4.319  -1.143  -2.801  0.00  0.00    +0.000 A 
ATOM     10  C   UNL     1       4.484  -1.179  -4.187  0.00  0.00    +0.000 A 
ATOM     11  C   UNL     1       3.400  -0.946  -5.002  0.00  0.00    +0.000 A 
ATOM     12  C   UNL     1       2.160  -0.730  -4.423  0.00  0.00    +0.000 A 
ATOM     13  C   UNL     1       1.963  -0.838  -3.037  0.00  0.00    +0.000 A 
ATOM     14 CL   UNL     1       0.286  -0.846  -2.636  0.00  0.00    +0.000 Cl
ENDBRANCH   1   8
BRANCH   1  16
ATOM     15  C   UNL     1       1.131   0.244   0.346  0.00  0.00    +0.000 C 
ATOM     16  N   UNL     1       2.555  -0.004   0.128  0.00  0.00    +0.000 NA
ATOM     17  H   UNL     1       2.972  -0.016   1.058  0.00  0.00    +0.000 HD
ENDBRANCH   1  16
TORSDOF 2
