REMARK  Name = Ketazolam
REMARK  3 active torsions:
REMARK  status: ('A' for Active; 'I' for Inactive)
REMARK    1  A    between atoms: C_1  and  N_2
REMARK    2  A    between atoms: C_10  and  C_21
REMARK    3  A    between atoms: C_12  and  C_13
REMARK                            x       y       z     vdW  Elec       q    Type
REMARK                         _______ _______ _______ _____ _____    ______ ____
ROOT
ATOM      1  C   UNL     1       1.117  -0.404  -0.396  0.00  0.00    +0.000 C 
ATOM      2  N   UNL     1       2.585  -0.137  -0.169  0.00  0.00    +0.000 N 
ATOM      3  C   UNL     1       3.180  -0.796   0.916  0.00  0.00    +0.000 A 
ATOM      4  C   UNL     1       3.731  -0.127   2.015  0.00  0.00    +0.000 A 
ATOM      5  C   UNL     1       4.467  -0.966   2.907  0.00  0.00    +0.000 A 
ATOM      6  C   UNL     1       4.741  -2.308   2.671  0.00  0.00    +0.000 A 
ATOM      7 CL   UNL     1       5.838  -3.147   3.695  0.00  0.00    +0.000 Cl
ATOM      8  C   UNL     1       4.149  -2.938   1.603  0.00  0.00    +0.000 A 
ATOM      9  C   UNL     1       3.337  -2.192   0.753  0.00  0.00    +0.000 A 
ATOM     10  C   UNL     1       3.658   1.422   2.304  0.00  0.00    +0.000 C 
ATOM     11  O   UNL     1       4.390   1.526   3.571  0.00  0.00    +0.000 OA
ATOM     12  C   UNL     1       5.773   1.789   3.426  0.00  0.00    +0.000 C 
ATOM     13  C   UNL     1       6.706   0.872   2.647  0.00  0.00    +0.000 C 
ATOM     14  C   UNL     1       5.963   3.045   3.077  0.00  0.00    +0.000 C 
ATOM     15  C   UNL     1       5.464   3.075   1.619  0.00  0.00    +0.000 C 
ATOM     16  O   UNL     1       6.157   3.627   0.816  0.00  0.00    +0.000 OA
ATOM     17  N   UNL     1       4.353   2.227   1.265  0.00  0.00    +0.000 N 
ATOM     18  C   UNL     1       3.840   2.144  -0.165  0.00  0.00    +0.000 C 
ATOM     19  C   UNL     1       3.380   0.767  -0.890  0.00  0.00    +0.000 C 
ATOM     20  O   UNL     1       3.529   0.610  -2.106  0.00  0.00    +0.000 OA
ENDROOT
BRANCH  10  21
ATOM     21  C   UNL     1       2.206   2.001   2.498  0.00  0.00    +0.000 A 
ATOM     22  C   UNL     1       1.298   1.927   1.443  0.00  0.00    +0.000 A 
ATOM     23  C   UNL     1      -0.009   2.379   1.344  0.00  0.00    +0.000 A 
ATOM     24  C   UNL     1      -0.511   3.011   2.433  0.00  0.00    +0.000 A 
ATOM     25  C   UNL     1       0.333   3.174   3.540  0.00  0.00    +0.000 A 
ATOM     26  C   UNL     1       1.689   2.721   3.561  0.00  0.00    +0.000 A 
ENDBRANCH  10  21
TORSDOF 1
