REMARK  Name = Ketorolac
REMARK  4 active torsions:
REMARK  status: ('A' for Active; 'I' for Inactive)
REMARK    1  A    between atoms: O_1  and  C_2
REMARK    2  A    between atoms: C_2  and  C_4
REMARK    3  A    between atoms: C_11  and  C_12
REMARK    4  A    between atoms: C_12  and  C_14
REMARK                            x       y       z     vdW  Elec       q    Type
REMARK                         _______ _______ _______ _____ _____    ______ ____
ROOT
ATOM      1  C   UNL     1       3.281  -1.257  -0.042  0.00  0.00    +0.000 C 
ATOM      2  C   UNL     1       2.729  -2.676  -0.332  0.00  0.00    +0.000 C 
ATOM      3  C   UNL     1       3.502  -3.619   0.618  0.00  0.00    +0.000 C 
ATOM      4  N   UNL     1       3.961  -2.737   1.676  0.00  0.00    +0.000 N 
ATOM      5  C   UNL     1       3.828  -1.424   1.332  0.00  0.00    +0.000 A 
ATOM      6  C   UNL     1       4.234  -0.656   2.387  0.00  0.00    +0.000 A 
ATOM      7  C   UNL     1       4.654  -1.571   3.390  0.00  0.00    +0.000 A 
ATOM      8  C   UNL     1       4.485  -2.880   2.929  0.00  0.00    +0.000 A 
ENDROOT
BRANCH   1   9
ATOM      9  C   UNL     1       2.445   0.018  -0.114  0.00  0.00    +0.000 C 
ATOM     10  O   UNL     1       2.973   1.127  -0.146  0.00  0.00    +0.000 OA
BRANCH   9  11
ATOM     11  O   UNL     1       1.105  -0.090  -0.109  0.00  0.00    +0.000 OA
ATOM     12  H   UNL     1       0.725  -0.976  -0.004  0.00  0.00    +0.000 HD
ENDBRANCH   9  11
ENDBRANCH   1   9
BRANCH   8  13
ATOM     13  C   UNL     1       4.801  -4.092   3.672  0.00  0.00    +0.000 C 
ATOM     14  O   UNL     1       5.204  -4.086   4.840  0.00  0.00    +0.000 OA
BRANCH  13  15
ATOM     15  C   UNL     1       4.681  -5.413   3.025  0.00  0.00    +0.000 A 
ATOM     16  C   UNL     1       3.851  -6.404   3.561  0.00  0.00    +0.000 A 
ATOM     17  C   UNL     1       3.789  -7.653   2.938  0.00  0.00    +0.000 A 
ATOM     18  C   UNL     1       4.490  -7.880   1.751  0.00  0.00    +0.000 A 
ATOM     19  C   UNL     1       5.316  -6.890   1.223  0.00  0.00    +0.000 A 
ATOM     20  C   UNL     1       5.445  -5.672   1.884  0.00  0.00    +0.000 A 
ENDBRANCH  13  15
ENDBRANCH   8  13
TORSDOF 4
