REMARK  Name = Ketoconazole
REMARK  8 active torsions:
REMARK  status: ('A' for Active; 'I' for Inactive)
REMARK    1  A    between atoms: C_1  and  C_2
REMARK    2  A    between atoms: N_7  and  C_10
REMARK    3  A    between atoms: C_13  and  O_14
REMARK    4  A    between atoms: O_14  and  C_15
REMARK    5  A    between atoms: C_15  and  C_16
REMARK    6  A    between atoms: C_19  and  C_20
REMARK    7  A    between atoms: C_19  and  C_27
REMARK    8  A    between atoms: C_20  and  N_21
REMARK                            x       y       z     vdW  Elec       q    Type
REMARK                         _______ _______ _______ _____ _____    ______ ____
ROOT
ATOM      1  C   UNL     1       8.922  -9.637  -2.983  0.00  0.00    +0.000 C 
ATOM      2  C   UNL     1       8.970 -10.746  -4.029  0.00  0.00    +0.000 C 
ATOM      3  O   UNL     1       8.886 -12.002  -3.334  0.00  0.00    +0.000 OA
ATOM      4  C   UNL     1       8.934 -11.690  -1.933  0.00  0.00    +0.000 C 
ATOM      5  O   UNL     1       9.232 -10.291  -1.749  0.00  0.00    +0.000 OA
ENDROOT
BRANCH   4   6
ATOM      6  C   UNL     1      10.029 -12.518  -1.224  0.00  0.00    +0.000 A 
ATOM      7  C   UNL     1       9.704 -13.364  -0.128  0.00  0.00    +0.000 A 
ATOM      8  C   UNL     1      10.678 -13.991   0.649  0.00  0.00    +0.000 A 
ATOM      9  C   UNL     1      12.008 -13.880   0.288  0.00  0.00    +0.000 A 
ATOM     10 CL   UNL     1      13.207 -14.731   1.175  0.00  0.00    +0.000 Cl
ATOM     11  C   UNL     1      12.368 -13.113  -0.811  0.00  0.00    +0.000 A 
ATOM     12  C   UNL     1      11.395 -12.433  -1.558  0.00  0.00    +0.000 A 
ATOM     13 CL   UNL     1      12.013 -11.525  -2.888  0.00  0.00    +0.000 Cl
ENDBRANCH   4   6
BRANCH   1  14
ATOM     14  C   UNL     1       7.955  -8.422  -2.833  0.00  0.00    +0.000 C 
BRANCH  14  15
ATOM     15  O   UNL     1       7.443  -8.231  -1.496  0.00  0.00    +0.000 OA
BRANCH  15  19
ATOM     16  C   UNL     1       4.828  -4.986  -0.714  0.00  0.00    +0.000 A 
ATOM     17  C   UNL     1       5.023  -6.044   0.183  0.00  0.00    +0.000 A 
ATOM     18  C   UNL     1       5.934  -7.084  -0.085  0.00  0.00    +0.000 A 
ATOM     19  C   UNL     1       6.626  -7.137  -1.298  0.00  0.00    +0.000 A 
ATOM     20  C   UNL     1       6.426  -6.099  -2.206  0.00  0.00    +0.000 A 
ATOM     21  C   UNL     1       5.534  -5.047  -1.919  0.00  0.00    +0.000 A 
BRANCH  16  28
ATOM     22  C   UNL     1       1.156   0.001  -0.063  0.00  0.00    +0.000 C 
ATOM     23  C   UNL     1       2.663  -0.002   0.003  0.00  0.00    +0.000 C 
ATOM     24  O   UNL     1       3.262   0.945   0.538  0.00  0.00    +0.000 OA
ATOM     25  N   UNL     1       3.307  -1.159  -0.369  0.00  0.00    +0.000 N 
ATOM     26  C   UNL     1       4.484  -1.606   0.381  0.00  0.00    +0.000 C 
ATOM     27  C   UNL     1       4.305  -3.090   0.794  0.00  0.00    +0.000 C 
ATOM     28  N   UNL     1       4.023  -3.914  -0.395  0.00  0.00    +0.000 N 
ATOM     29  C   UNL     1       2.907  -3.460  -1.239  0.00  0.00    +0.000 C 
ATOM     30  C   UNL     1       3.042  -1.959  -1.576  0.00  0.00    +0.000 C 
ENDBRANCH  16  28
ENDBRANCH  15  19
ENDBRANCH  14  15
ENDBRANCH   1  14
BRANCH   4  31
ATOM     31  C   UNL     1       7.540 -12.014  -1.326  0.00  0.00    +0.000 C 
BRANCH  31  32
ATOM     32  N   UNL     1       6.424 -11.298  -1.896  0.00  0.00    +0.000 N 
ATOM     33  C   UNL     1       5.995 -11.341  -3.190  0.00  0.00    +0.000 A 
ATOM     34  C   UNL     1       5.028 -10.371  -3.267  0.00  0.00    +0.000 A 
ATOM     35  N   UNL     1       4.779  -9.837  -2.032  0.00  0.00    +0.000 NA
ATOM     36  C   UNL     1       5.630 -10.423  -1.221  0.00  0.00    +0.000 A 
ENDBRANCH  31  32
ENDBRANCH   4  31
TORSDOF 7
