REMARK  Name = Ketotifen
REMARK  1 active torsions:
REMARK  status: ('A' for Active; 'I' for Inactive)
REMARK    1  A    between atoms: C_1  and  N_2
REMARK                            x       y       z     vdW  Elec       q    Type
REMARK                         _______ _______ _______ _____ _____    ______ ____
ROOT
ATOM      1  C   UNL     1       0.912   0.109   0.068  0.00  0.00    +0.000 C 
ATOM      2  N   UNL     1       2.377   0.108   0.012  0.00  0.00    +0.000 NA
ATOM      3  C   UNL     1       2.876  -1.232  -0.328  0.00  0.00    +0.000 C 
ATOM      4  C   UNL     1       2.457  -1.682  -1.724  0.00  0.00    +0.000 C 
ATOM      5  C   UNL     1       2.941  -0.705  -2.782  0.00  0.00    +0.000 C 
ATOM      6  C   UNL     1       2.493   0.720  -2.436  0.00  0.00    +0.000 C 
ATOM      7  C   UNL     1       2.870   1.076  -0.987  0.00  0.00    +0.000 C 
ATOM      8  C   UNL     1       3.712  -1.075  -3.841  0.00  0.00    +0.000 C 
ATOM      9  C   UNL     1       4.142  -2.447  -4.054  0.00  0.00    +0.000 A 
ATOM     10  C   UNL     1       5.432  -2.829  -4.401  0.00  0.00    +0.000 A 
ATOM     11  S   UNL     1       5.578  -4.537  -4.493  0.00  0.00    +0.000 S 
ATOM     12  C   UNL     1       3.941  -4.772  -4.098  0.00  0.00    +0.000 A 
ATOM     13  C   UNL     1       3.272  -3.581  -3.966  0.00  0.00    +0.000 A 
ATOM     14  C   UNL     1       6.621  -2.022  -4.638  0.00  0.00    +0.000 C 
ATOM     15  O   UNL     1       7.665  -2.463  -5.138  0.00  0.00    +0.000 OA
ATOM     16  C   UNL     1       6.571  -0.583  -4.177  0.00  0.00    +0.000 C 
ATOM     17  C   UNL     1       5.549   0.239  -4.921  0.00  0.00    +0.000 A 
ATOM     18  C   UNL     1       5.963   1.265  -5.775  0.00  0.00    +0.000 A 
ATOM     19  C   UNL     1       5.023   2.045  -6.447  0.00  0.00    +0.000 A 
ATOM     20  C   UNL     1       3.661   1.792  -6.300  0.00  0.00    +0.000 A 
ATOM     21  C   UNL     1       3.238   0.754  -5.479  0.00  0.00    +0.000 A 
ATOM     22  C   UNL     1       4.173  -0.007  -4.762  0.00  0.00    +0.000 A 
ENDROOT
TORSDOF 0
