REMARK  Name = Ketoprofen
REMARK  6 active torsions:
REMARK  status: ('A' for Active; 'I' for Inactive)
REMARK    1  A    between atoms: C_1  and  C_2
REMARK    2  A    between atoms: C_2  and  C_3
REMARK    3  A    between atoms: C_2  and  C_6
REMARK    4  A    between atoms: C_3  and  O_4
REMARK    5  A    between atoms: C_8  and  C_12
REMARK    6  A    between atoms: C_12  and  C_14
REMARK                            x       y       z     vdW  Elec       q    Type
REMARK                         _______ _______ _______ _____ _____    ______ ____
ROOT
ATOM      1  C   UNL     1       2.976  -1.195  -0.902  0.00  0.00    +0.000 A 
ATOM      2  C   UNL     1       2.408  -2.456  -0.677  0.00  0.00    +0.000 A 
ATOM      3  C   UNL     1       2.913  -3.582  -1.317  0.00  0.00    +0.000 A 
ATOM      4  C   UNL     1       3.883  -3.436  -2.307  0.00  0.00    +0.000 A 
ATOM      5  C   UNL     1       4.454  -2.189  -2.545  0.00  0.00    +0.000 A 
ATOM      6  C   UNL     1       4.019  -1.074  -1.832  0.00  0.00    +0.000 A 
ENDROOT
BRANCH   1   8
ATOM      7  C   UNL     1       1.001   0.090  -0.067  0.00  0.00    +0.000 C 
ATOM      8  C   UNL     1       2.530  -0.014  -0.059  0.00  0.00    +0.000 C 
BRANCH   8   9
ATOM      9  C   UNL     1       3.043  -0.036   1.382  0.00  0.00    +0.000 C 
ATOM     10  O   UNL     1       2.755   0.842   2.194  0.00  0.00    +0.000 OA
BRANCH   9  11
ATOM     11  O   UNL     1       3.850  -1.057   1.745  0.00  0.00    +0.000 OA
ATOM     12  H   UNL     1       4.033  -1.731   1.063  0.00  0.00    +0.000 HD
ENDBRANCH   9  11
ENDBRANCH   8   9
ENDBRANCH   1   8
BRANCH   3  13
ATOM     13  C   UNL     1       2.454  -4.903  -0.833  0.00  0.00    +0.000 C 
ATOM     14  O   UNL     1       1.613  -4.991   0.057  0.00  0.00    +0.000 OA
BRANCH  13  15
ATOM     15  C   UNL     1       3.022  -6.137  -1.388  0.00  0.00    +0.000 A 
ATOM     16  C   UNL     1       2.136  -7.031  -1.983  0.00  0.00    +0.000 A 
ATOM     17  C   UNL     1       2.622  -8.234  -2.481  0.00  0.00    +0.000 A 
ATOM     18  C   UNL     1       3.992  -8.502  -2.447  0.00  0.00    +0.000 A 
ATOM     19  C   UNL     1       4.880  -7.591  -1.870  0.00  0.00    +0.000 A 
ATOM     20  C   UNL     1       4.393  -6.412  -1.315  0.00  0.00    +0.000 A 
ENDBRANCH  13  15
ENDBRANCH   3  13
TORSDOF 5
