REMARK  Name = Kinetin
REMARK  2 active torsions:
REMARK  status: ('A' for Active; 'I' for Inactive)
REMARK    1  A    between atoms: C_1  and  N_2
REMARK    2  A    between atoms: C_1  and  C_12
REMARK                            x       y       z     vdW  Elec       q    Type
REMARK                         _______ _______ _______ _____ _____    ______ ____
ROOT
ATOM      1  N   UNL     1       0.362   1.293  -0.037  0.00  0.00    +0.000 N 
ATOM      2  C   UNL     1      -0.986   1.519  -0.024  0.00  0.00    +0.000 A 
ATOM      3  N   UNL     1      -1.809   0.798   0.754  0.00  0.00    +0.000 NA
ATOM      4  C   UNL     1      -3.118   1.132   0.786  0.00  0.00    +0.000 A 
ATOM      5  N   UNL     1      -3.752   2.078   0.079  0.00  0.00    +0.000 NA
ATOM      6  C   UNL     1      -2.920   2.766  -0.718  0.00  0.00    +0.000 A 
ATOM      7  C   UNL     1      -1.556   2.534  -0.770  0.00  0.00    +0.000 A 
ATOM      8  N   UNL     1      -1.092   3.443  -1.681  0.00  0.00    +0.000 N 
ATOM      9  C   UNL     1      -2.162   4.161  -2.140  0.00  0.00    +0.000 A 
ATOM     10  N   UNL     1      -3.283   3.773  -1.571  0.00  0.00    +0.000 NA
ATOM     11  H   UNL     1       0.969   2.083  -0.144  0.00  0.00    +0.000 HD
ATOM     12  H   UNL     1      -0.133   3.546  -1.988  0.00  0.00    +0.000 HD
ENDROOT
BRANCH   1  13
ATOM     13  C   UNL     1       0.952  -0.033   0.051  0.00  0.00    +0.000 C 
BRANCH  13  14
ATOM     14  C   UNL     1       2.453   0.040   0.038  0.00  0.00    +0.000 A 
ATOM     15  C   UNL     1       3.322   1.114   0.033  0.00  0.00    +0.000 A 
ATOM     16  C   UNL     1       4.628   0.589   0.007  0.00  0.00    +0.000 A 
ATOM     17  C   UNL     1       4.486  -0.778  -0.001  0.00  0.00    +0.000 A 
ATOM     18  O   UNL     1       3.168  -1.126   0.013  0.00  0.00    +0.000 OA
ENDBRANCH  13  14
ENDBRANCH   1  13
TORSDOF 2
