REMARK  Name = L-Glutamine
REMARK  6 active torsions:
REMARK  status: ('A' for Active; 'I' for Inactive)
REMARK    1  A    between atoms: N_1  and  CA_2
REMARK    2  A    between atoms: CA_2  and  CB_3
REMARK    3  A    between atoms: CA_2  and  C_8
REMARK    4  A    between atoms: CB_3  and  CG_4
REMARK    5  A    between atoms: CG_4  and  CD_5
REMARK    6  A    between atoms: C_8  and  O_9
REMARK                            x       y       z     vdW  Elec       q    Type
REMARK                         _______ _______ _______ _____ _____    ______ ____
ROOT
ATOM      1  CA  GLN A   1       2.489   0.014  -0.020  0.00  0.00    +0.000 C 
ENDROOT
BRANCH   1   2
ATOM      2  N   GLN A   1       1.003   0.064   0.030  0.00  0.00    +0.000 NA
ATOM      3  H1  GLN A   1       0.654  -0.661  -0.608  0.00  0.00    +0.000 HD
ATOM      4  H2  GLN A   1       0.679   0.933  -0.403  0.00  0.00    +0.000 HD
ENDBRANCH   1   2
BRANCH   1   5
ATOM      5  C   GLN A   1       3.088   0.965   1.032  0.00  0.00    +0.000 C 
ATOM      6  OXT GLN A   1       4.292   1.145   1.182  0.00  0.00    +0.000 OA
BRANCH   5   7
ATOM      7  O   GLN A   1       2.157   1.633   1.754  0.00  0.00    +0.000 OA
ATOM      8  H   GLN A   1       1.268   1.278   1.523  0.00  0.00    +0.000 HD
ENDBRANCH   5   7
ENDBRANCH   1   5
BRANCH   1   9
ATOM      9  CB  GLN A   1       3.011   0.421  -1.399  0.00  0.00    +0.000 C 
BRANCH   9  10
ATOM     10  CG  GLN A   1       2.574  -0.499  -2.537  0.00  0.00    +0.000 C 
BRANCH  10  11
ATOM     11  CD  GLN A   1       3.070  -0.091  -3.911  0.00  0.00    +0.000 C 
ATOM     12  NE2 GLN A   1       3.835   1.028  -4.012  0.00  0.00    +0.000 N 
ATOM     13  OE1 GLN A   1       2.777  -0.732  -4.917  0.00  0.00    +0.000 OA
ATOM     14 HE21 GLN A   1       4.147   1.589  -3.232  0.00  0.00    +0.000 HD
ATOM     15 HE22 GLN A   1       4.168   1.287  -4.931  0.00  0.00    +0.000 HD
ENDBRANCH  10  11
ENDBRANCH   9  10
ENDBRANCH   1   9
TORSDOF 6
