REMARK  Name = L-Lactic acid
REMARK  4 active torsions:
REMARK  status: ('A' for Active; 'I' for Inactive)
REMARK    1  A    between atoms: C_1  and  C_2
REMARK    2  A    between atoms: C_2  and  O_3
REMARK    3  A    between atoms: C_2  and  C_4
REMARK    4  A    between atoms: C_4  and  O_5
REMARK                            x       y       z     vdW  Elec       q    Type
REMARK                         _______ _______ _______ _____ _____    ______ ____
ROOT
ATOM      1  C   UNL     1       3.082   0.606  -1.331  0.00  0.00    +0.000 C 
ATOM      2  C   UNL     1       2.578   0.078   0.006  0.00  0.00    +0.000 C 
ENDROOT
BRANCH   2   3
ATOM      3  O   UNL     1       1.147   0.108   0.052  0.00  0.00    +0.000 OA
ATOM      4  H   UNL     1       0.850   0.949  -0.339  0.00  0.00    +0.000 HD
ENDBRANCH   2   3
BRANCH   2   5
ATOM      5  C   UNL     1       3.175   0.902   1.150  0.00  0.00    +0.000 C 
ATOM      6  O   UNL     1       4.377   1.056   1.333  0.00  0.00    +0.000 OA
BRANCH   5   7
ATOM      7  O   UNL     1       2.239   1.485   1.939  0.00  0.00    +0.000 OA
ATOM      8  H   UNL     1       1.337   1.177   1.707  0.00  0.00    +0.000 HD
ENDBRANCH   5   7
ENDBRANCH   2   5
TORSDOF 3
