REMARK  Name = Labetalol
REMARK  11 active torsions:
REMARK  status: ('A' for Active; 'I' for Inactive)
REMARK    1  A    between atoms: C_1  and  C_2
REMARK    2  A    between atoms: C_2  and  C_3
REMARK    3  A    between atoms: C_2  and  N_11
REMARK    4  A    between atoms: C_3  and  C_4
REMARK    5  A    between atoms: C_4  and  C_5
REMARK    6  A    between atoms: N_11  and  C_12
REMARK    7  A    between atoms: C_12  and  C_13
REMARK    8  A    between atoms: C_13  and  O_14
REMARK    9  A    between atoms: C_13  and  C_15
REMARK   10  A    between atoms: C_17  and  C_18
REMARK   11  A    between atoms: C_21  and  O_22
REMARK                            x       y       z     vdW  Elec       q    Type
REMARK                         _______ _______ _______ _____ _____    ______ ____
ROOT
ATOM      1  C   UNL     1       5.087  -1.949   2.094  0.00  0.00    +0.000 C 
ENDROOT
BRANCH   1   2
ATOM      2  C   UNL     1       6.604  -1.921   2.113  0.00  0.00    +0.000 A 
ATOM      3  C   UNL     1       7.335  -3.113   2.109  0.00  0.00    +0.000 A 
ATOM      4  C   UNL     1       8.719  -3.109   2.307  0.00  0.00    +0.000 A 
ATOM      5  C   UNL     1       9.396  -1.882   2.343  0.00  0.00    +0.000 A 
ATOM      6  C   UNL     1       8.691  -0.685   2.314  0.00  0.00    +0.000 A 
ATOM      7  C   UNL     1       7.302  -0.706   2.230  0.00  0.00    +0.000 A 
BRANCH   4   8
ATOM      8  C   UNL     1       9.446  -4.372   2.592  0.00  0.00    +0.000 C 
ATOM      9  N   UNL     1       8.751  -5.546   2.635  0.00  0.00    +0.000 N 
ATOM     10  O   UNL     1      10.656  -4.348   2.831  0.00  0.00    +0.000 OA
ATOM     11  H   UNL     1       7.752  -5.636   2.527  0.00  0.00    +0.000 HD
ATOM     12  H   UNL     1       9.252  -6.375   2.926  0.00  0.00    +0.000 HD
ENDBRANCH   4   8
BRANCH   5  13
ATOM     13  O   UNL     1      10.759  -1.774   2.405  0.00  0.00    +0.000 OA
ATOM     14  H   UNL     1      11.129  -2.684   2.442  0.00  0.00    +0.000 HD
ENDBRANCH   5  13
ENDBRANCH   1   2
BRANCH   1  15
ATOM     15  O   UNL     1       4.586  -3.262   1.810  0.00  0.00    +0.000 OA
ATOM     16  H   UNL     1       4.857  -3.469   0.901  0.00  0.00    +0.000 HD
ENDBRANCH   1  15
BRANCH   1  17
ATOM     17  C   UNL     1       4.547  -0.975   1.042  0.00  0.00    +0.000 C 
BRANCH  17  18
ATOM     18  N   UNL     1       3.084  -0.941   1.020  0.00  0.00    +0.000 NA
ATOM     19  H   UNL     1       2.728  -1.887   0.874  0.00  0.00    +0.000 HD
BRANCH  18  21
ATOM     20  C   UNL     1       1.051  -0.064   0.027  0.00  0.00    +0.000 C 
ATOM     21  C   UNL     1       2.576  -0.021  -0.001  0.00  0.00    +0.000 C 
BRANCH  21  22
ATOM     22  C   UNL     1       3.080   1.392   0.285  0.00  0.00    +0.000 C 
BRANCH  22  23
ATOM     23  C   UNL     1       2.645   2.414  -0.748  0.00  0.00    +0.000 C 
BRANCH  23  24
ATOM     24  C   UNL     1       3.135   3.800  -0.424  0.00  0.00    +0.000 A 
ATOM     25  C   UNL     1       4.073   4.067   0.586  0.00  0.00    +0.000 A 
ATOM     26  C   UNL     1       4.338   5.373   0.974  0.00  0.00    +0.000 A 
ATOM     27  C   UNL     1       3.750   6.426   0.285  0.00  0.00    +0.000 A 
ATOM     28  C   UNL     1       2.868   6.174  -0.765  0.00  0.00    +0.000 A 
ATOM     29  C   UNL     1       2.556   4.866  -1.116  0.00  0.00    +0.000 A 
ENDBRANCH  23  24
ENDBRANCH  22  23
ENDBRANCH  21  22
ENDBRANCH  18  21
ENDBRANCH  17  18
ENDBRANCH   1  17
TORSDOF 10
