REMARK  Name = Lacidipine
REMARK  18 active torsions:
REMARK  status: ('A' for Active; 'I' for Inactive)
REMARK    1  A    between atoms: C_1  and  C_2
REMARK    2  A    between atoms: C_2  and  O_3
REMARK    3  A    between atoms: O_3  and  C_4
REMARK    4  A    between atoms: C_4  and  C_6
REMARK    5  A    between atoms: C_7  and  C_8
REMARK    6  A    between atoms: C_10  and  C_11
REMARK    7  A    between atoms: C_12  and  C_29
REMARK    8  A    between atoms: C_13  and  C_14
REMARK    9  A    between atoms: C_19  and  C_20
REMARK   10  A    between atoms: C_21  and  C_22
REMARK   11  A    between atoms: C_22  and  O_24
REMARK   12  A    between atoms: O_24  and  C_25
REMARK   13  A    between atoms: C_25  and  C_26
REMARK   14  A    between atoms: C_25  and  C_27
REMARK   15  A    between atoms: C_25  and  C_28
REMARK   16  A    between atoms: C_29  and  O_31
REMARK   17  A    between atoms: O_31  and  C_32
REMARK   18  A    between atoms: C_32  and  C_33
REMARK                            x       y       z     vdW  Elec       q    Type
REMARK                         _______ _______ _______ _____ _____    ______ ____
ROOT
ATOM      1  C   UNL     1       5.165   2.166  -1.621  0.00  0.00    +0.000 C 
ATOM      2  C   UNL     1       4.926   3.403  -1.122  0.00  0.00    +0.000 C 
ATOM      3  C   UNL     1       3.571   3.706  -0.393  0.00  0.00    +0.000 C 
ATOM      4  N   UNL     1       5.714   4.496  -1.633  0.00  0.00    +0.000 N 
ATOM      5  C   UNL     1       6.452   4.501  -2.843  0.00  0.00    +0.000 C 
ATOM      6  C   UNL     1       6.516   5.836  -3.660  0.00  0.00    +0.000 C 
ATOM      7  C   UNL     1       6.808   3.308  -3.362  0.00  0.00    +0.000 C 
ATOM      8  C   UNL     1       6.111   1.996  -2.861  0.00  0.00    +0.000 C 
ATOM      9  H   UNL     1       5.212   5.377  -1.575  0.00  0.00    +0.000 HD
ENDROOT
BRANCH   8  10
ATOM     10  C   UNL     1       5.286   1.375  -4.059  0.00  0.00    +0.000 A 
ATOM     11  C   UNL     1       5.742   0.089  -4.481  0.00  0.00    +0.000 A 
ATOM     12  C   UNL     1       5.184  -0.561  -5.587  0.00  0.00    +0.000 A 
ATOM     13  C   UNL     1       4.112   0.009  -6.254  0.00  0.00    +0.000 A 
ATOM     14  C   UNL     1       3.629   1.254  -5.859  0.00  0.00    +0.000 A 
ATOM     15  C   UNL     1       4.167   1.976  -4.775  0.00  0.00    +0.000 A 
BRANCH  15  16
ATOM     16  C   UNL     1       3.384   3.274  -4.601  0.00  0.00    +0.000 C 
ATOM     17  C   UNL     1       3.599   4.149  -3.629  0.00  0.00    +0.000 C 
BRANCH  17  18
ATOM     18  C   UNL     1       3.139   5.481  -3.099  0.00  0.00    +0.000 C 
ATOM     19  O   UNL     1       2.263   6.107  -3.632  0.00  0.00    +0.000 OA
BRANCH  18  20
ATOM     20  O   UNL     1       3.879   5.888  -1.974  0.00  0.00    +0.000 OA
BRANCH  20  21
ATOM     21  C   UNL     1       3.804   7.163  -1.205  0.00  0.00    +0.000 C 
ATOM     22  C   UNL     1       4.096   8.251  -2.217  0.00  0.00    +0.000 C 
ATOM     23  C   UNL     1       2.432   7.135  -0.571  0.00  0.00    +0.000 C 
ATOM     24  C   UNL     1       4.844   7.402  -0.025  0.00  0.00    +0.000 C 
ENDBRANCH  20  21
ENDBRANCH  18  20
ENDBRANCH  17  18
ENDBRANCH  15  16
ENDBRANCH   8  10
BRANCH   1  25
ATOM     25  C   UNL     1       4.565   0.990  -0.930  0.00  0.00    +0.000 C 
ATOM     26  O   UNL     1       5.280   0.210  -0.314  0.00  0.00    +0.000 OA
BRANCH  25  27
ATOM     27  O   UNL     1       3.193   0.946  -0.923  0.00  0.00    +0.000 OA
BRANCH  27  29
ATOM     28  C   UNL     1       1.110   0.015   0.046  0.00  0.00    +0.000 C 
ATOM     29  C   UNL     1       2.637  -0.011   0.018  0.00  0.00    +0.000 C 
ENDBRANCH  27  29
ENDBRANCH  25  27
ENDBRANCH   1  25
BRANCH   7  30
ATOM     30  C   UNL     1       7.945   3.375  -4.316  0.00  0.00    +0.000 C 
ATOM     31  O   UNL     1       8.399   4.405  -4.806  0.00  0.00    +0.000 OA
BRANCH  30  32
ATOM     32  O   UNL     1       8.553   2.175  -4.431  0.00  0.00    +0.000 OA
BRANCH  32  33
ATOM     33  C   UNL     1       9.809   2.287  -5.117  0.00  0.00    +0.000 C 
ATOM     34  C   UNL     1      10.404   0.905  -5.200  0.00  0.00    +0.000 C 
ENDBRANCH  32  33
ENDBRANCH  30  32
ENDBRANCH   7  30
TORSDOF 11
