REMARK  Name = Lacosamide
REMARK  8 active torsions:
REMARK  status: ('A' for Active; 'I' for Inactive)
REMARK    1  A    between atoms: C_1  and  O_2
REMARK    2  A    between atoms: O_2  and  C_3
REMARK    3  A    between atoms: C_3  and  C_4
REMARK    4  A    between atoms: C_4  and  N_5
REMARK    5  A    between atoms: C_4  and  C_9
REMARK    6  A    between atoms: C_6  and  C_7
REMARK    7  A    between atoms: N_11  and  C_12
REMARK    8  A    between atoms: C_12  and  C_13
REMARK                            x       y       z     vdW  Elec       q    Type
REMARK                         _______ _______ _______ _____ _____    ______ ____
ROOT
ATOM      1  C   UNL     1       4.905  -2.801  -0.830  0.00  0.00    +0.000 C 
ATOM      2  O   UNL     1       4.143  -3.700  -1.204  0.00  0.00    +0.000 OA
ATOM      3  N   UNL     1       6.263  -2.960  -0.896  0.00  0.00    +0.000 N 
ATOM      4  H   UNL     1       6.834  -2.188  -0.591  0.00  0.00    +0.000 HD
ENDROOT
BRANCH   1   5
ATOM      5  C   UNL     1       4.395  -1.401  -0.376  0.00  0.00    +0.000 C 
BRANCH   5   6
ATOM      6  N   UNL     1       4.944  -0.973   0.930  0.00  0.00    +0.000 N 
ATOM      7  C   UNL     1       4.707   0.193   1.613  0.00  0.00    +0.000 C 
ATOM      8  C   UNL     1       3.969   1.347   0.977  0.00  0.00    +0.000 C 
ATOM      9  O   UNL     1       5.113   0.286   2.777  0.00  0.00    +0.000 OA
ATOM     10  H   UNL     1       5.422  -1.663   1.500  0.00  0.00    +0.000 HD
ENDBRANCH   5   6
BRANCH   5  11
ATOM     11  C   UNL     1       2.850  -1.486  -0.409  0.00  0.00    +0.000 C 
BRANCH  11  13
ATOM     12  C   UNL     1       0.872  -0.194  -0.005  0.00  0.00    +0.000 C 
ATOM     13  O   UNL     1       2.276  -0.241  -0.061  0.00  0.00    +0.000 OA
ENDBRANCH  11  13
ENDBRANCH   5  11
ENDBRANCH   1   5
BRANCH   3  14
ATOM     14  C   UNL     1       6.872  -4.206  -1.359  0.00  0.00    +0.000 C 
BRANCH  14  15
ATOM     15  C   UNL     1       8.386  -4.218  -1.342  0.00  0.00    +0.000 A 
ATOM     16  C   UNL     1       9.085  -5.411  -1.608  0.00  0.00    +0.000 A 
ATOM     17  C   UNL     1      10.477  -5.472  -1.451  0.00  0.00    +0.000 A 
ATOM     18  C   UNL     1      11.195  -4.330  -1.105  0.00  0.00    +0.000 A 
ATOM     19  C   UNL     1      10.525  -3.133  -0.895  0.00  0.00    +0.000 A 
ATOM     20  C   UNL     1       9.140  -3.080  -1.020  0.00  0.00    +0.000 A 
ENDBRANCH  14  15
ENDBRANCH   3  14
TORSDOF 6
