REMARK  Name = Lactitol
REMARK  17 active torsions:
REMARK  status: ('A' for Active; 'I' for Inactive)
REMARK    1  A    between atoms: O_1  and  C_2
REMARK    2  A    between atoms: C_2  and  C_3
REMARK    3  A    between atoms: C_3  and  O_4
REMARK    4  A    between atoms: C_3  and  C_5
REMARK    5  A    between atoms: C_5  and  O_6
REMARK    6  A    between atoms: C_5  and  C_7
REMARK    7  A    between atoms: C_7  and  O_8
REMARK    8  A    between atoms: C_7  and  C_20
REMARK    9  A    between atoms: O_8  and  C_9
REMARK   10  A    between atoms: C_11  and  C_12
REMARK   11  A    between atoms: C_12  and  O_13
REMARK   12  A    between atoms: C_14  and  O_15
REMARK   13  A    between atoms: C_16  and  O_17
REMARK   14  A    between atoms: C_18  and  O_19
REMARK   15  A    between atoms: C_20  and  O_21
REMARK   16  A    between atoms: C_20  and  C_22
REMARK   17  A    between atoms: C_22  and  O_23
REMARK                            x       y       z     vdW  Elec       q    Type
REMARK                         _______ _______ _______ _____ _____    ______ ____
ROOT
ATOM      1  C   UNL     1       9.509   1.547  -2.479  0.00  0.00    +0.000 C 
ENDROOT
BRANCH   1   2
ATOM      2  C   UNL     1      10.879   2.188  -1.960  0.00  0.00    +0.000 C 
BRANCH   2   3
ATOM      3  O   UNL     1      11.108   3.582  -2.044  0.00  0.00    +0.000 OA
ATOM      4  H   UNL     1      10.547   3.946  -2.751  0.00  0.00    +0.000 HD
ENDBRANCH   2   3
BRANCH   2   5
ATOM      5  C   UNL     1      11.988   1.353  -2.659  0.00  0.00    +0.000 C 
BRANCH   5   6
ATOM      6  O   UNL     1      11.228   0.540  -3.521  0.00  0.00    +0.000 OA
ATOM      7  H   UNL     1      10.994  -0.413  -3.521  0.00  0.00    +0.000 HD
ENDBRANCH   5   6
ENDBRANCH   2   5
ENDBRANCH   1   2
BRANCH   1   8
ATOM      8  O   UNL     1       9.511   0.187  -1.672  0.00  0.00    +0.000 OA
BRANCH   8   9
ATOM      9  C   UNL     1      10.852  -0.436  -1.412  0.00  0.00    +0.000 C 
ATOM     10  O   UNL     1      11.369  -1.190  -2.583  0.00  0.00    +0.000 OA
ATOM     11  C   UNL     1      12.861  -1.252  -2.892  0.00  0.00    +0.000 C 
ATOM     12  C   UNL     1      12.957  -2.445  -2.024  0.00  0.00    +0.000 C 
ATOM     13  C   UNL     1      12.470  -1.990  -0.567  0.00  0.00    +0.000 C 
ATOM     14  C   UNL     1      10.969  -1.469  -0.370  0.00  0.00    +0.000 C 
BRANCH  14  15
ATOM     15  O   UNL     1      10.753  -0.886   0.922  0.00  0.00    +0.000 OA
ATOM     16  H   UNL     1      11.350  -0.124   1.039  0.00  0.00    +0.000 HD
ENDBRANCH  14  15
BRANCH  12  17
ATOM     17  O   UNL     1      12.022  -3.395  -2.585  0.00  0.00    +0.000 OA
ATOM     18  H   UNL     1      11.210  -2.857  -2.769  0.00  0.00    +0.000 HD
ENDBRANCH  12  17
BRANCH  13  19
ATOM     19  O   UNL     1      12.592  -3.130   0.244  0.00  0.00    +0.000 OA
ATOM     20  H   UNL     1      11.932  -3.728  -0.161  0.00  0.00    +0.000 HD
ENDBRANCH  13  19
BRANCH  11  21
ATOM     21  C   UNL     1      13.199  -1.492  -4.462  0.00  0.00    +0.000 C 
BRANCH  21  22
ATOM     22  O   UNL     1      13.800  -0.456  -5.281  0.00  0.00    +0.000 OA
ATOM     23  H   UNL     1      14.557   0.009  -4.896  0.00  0.00    +0.000 HD
ENDBRANCH  21  22
ENDBRANCH  11  21
ENDBRANCH   8   9
ENDBRANCH   1   8
BRANCH   1  24
ATOM     24  C   UNL     1       9.171   1.269  -4.207  0.00  0.00    +0.000 C 
BRANCH  24  25
ATOM     25  O   UNL     1       7.954   1.980  -4.540  0.00  0.00    +0.000 OA
ATOM     26  H   UNL     1       8.304   2.813  -4.930  0.00  0.00    +0.000 HD
ENDBRANCH  24  25
BRANCH  24  27
ATOM     27  C   UNL     1      10.193   1.685  -5.537  0.00  0.00    +0.000 C 
BRANCH  27  28
ATOM     28  O   UNL     1       9.904   3.099  -5.810  0.00  0.00    +0.000 OA
ATOM     29  H   UNL     1      10.455   3.494  -5.065  0.00  0.00    +0.000 HD
ENDBRANCH  27  28
BRANCH  27  30
ATOM     30  C   UNL     1      11.663   1.673  -5.263  0.00  0.00    +0.000 C 
BRANCH  30  31
ATOM     31  O   UNL     1      11.487   2.857  -4.329  0.00  0.00    +0.000 OA
ATOM     32  H   UNL     1      12.031   3.157  -3.676  0.00  0.00    +0.000 HD
ENDBRANCH  30  31
ENDBRANCH  27  30
ENDBRANCH  24  27
ENDBRANCH   1  24
TORSDOF 17
