REMARK  Name = Lactose
REMARK  12 active torsions:
REMARK  status: ('A' for Active; 'I' for Inactive)
REMARK    1  A    between atoms: O_1  and  C_2
REMARK    2  A    between atoms: C_2  and  C_3
REMARK    3  A    between atoms: C_5  and  O_6
REMARK    4  A    between atoms: O_6  and  C_7
REMARK    5  A    between atoms: C_8  and  O_9
REMARK    6  A    between atoms: C_10  and  O_11
REMARK    7  A    between atoms: C_12  and  O_13
REMARK    8  A    between atoms: C_15  and  C_16
REMARK    9  A    between atoms: C_16  and  O_17
REMARK   10  A    between atoms: C_18  and  O_19
REMARK   11  A    between atoms: C_20  and  O_21
REMARK   12  A    between atoms: C_22  and  O_23
REMARK                            x       y       z     vdW  Elec       q    Type
REMARK                         _______ _______ _______ _____ _____    ______ ____
ROOT
ATOM      1  O   UNL     1       2.743   3.901   1.793  0.00  0.00    +0.000 OA
ENDROOT
BRANCH   1   4
ATOM      2  C   UNL     1       2.761   0.313   2.499  0.00  0.00    +0.000 C 
ATOM      3  O   UNL     1       2.588   1.544   1.777  0.00  0.00    +0.000 OA
ATOM      4  C   UNL     1       3.364   2.650   2.262  0.00  0.00    +0.000 C 
ATOM      5  C   UNL     1       3.381   2.723   3.783  0.00  0.00    +0.000 C 
ATOM      6  C   UNL     1       3.228   1.483   4.665  0.00  0.00    +0.000 C 
ATOM      7  C   UNL     1       2.298   0.472   3.958  0.00  0.00    +0.000 C 
BRANCH   5   8
ATOM      8  O   UNL     1       3.943   3.908   4.350  0.00  0.00    +0.000 OA
ATOM      9  H   UNL     1       4.739   3.697   4.825  0.00  0.00    +0.000 HD
ENDBRANCH   5   8
BRANCH   6  10
ATOM     10  O   UNL     1       2.694   1.782   5.971  0.00  0.00    +0.000 OA
ATOM     11  H   UNL     1       1.792   2.158   5.857  0.00  0.00    +0.000 HD
ENDBRANCH   6  10
BRANCH   7  12
ATOM     12  O   UNL     1       0.909   0.896   4.026  0.00  0.00    +0.000 OA
ATOM     13  H   UNL     1       0.555   1.000   3.122  0.00  0.00    +0.000 HD
ENDBRANCH   7  12
BRANCH   2  14
ATOM     14  C   UNL     1       1.902  -0.770   1.832  0.00  0.00    +0.000 C 
BRANCH  14  15
ATOM     15  O   UNL     1       2.493  -1.221   0.623  0.00  0.00    +0.000 OA
ATOM     16  H   UNL     1       1.896  -1.900   0.262  0.00  0.00    +0.000 HD
ENDBRANCH  14  15
ENDBRANCH   2  14
ENDBRANCH   1   4
BRANCH   1  17
ATOM     17  C   UNL     1       1.306   4.044   2.051  0.00  0.00    +0.000 C 
ATOM     18  C   UNL     1       0.848   4.345   3.582  0.00  0.00    +0.000 C 
ATOM     19  C   UNL     1      -0.640   4.548   3.660  0.00  0.00    +0.000 C 
ATOM     20  C   UNL     1      -1.046   5.672   2.752  0.00  0.00    +0.000 C 
ATOM     21  O   UNL     1      -0.678   5.400   1.411  0.00  0.00    +0.000 OA
ATOM     22  C   UNL     1       0.739   5.239   1.193  0.00  0.00    +0.000 C 
BRANCH  18  23
ATOM     23  O   UNL     1       0.928   3.385   4.674  0.00  0.00    +0.000 OA
ATOM     24  H   UNL     1       0.593   2.518   4.359  0.00  0.00    +0.000 HD
ENDBRANCH  18  23
BRANCH  19  25
ATOM     25  O   UNL     1      -1.031   4.815   5.019  0.00  0.00    +0.000 OA
ATOM     26  H   UNL     1      -0.227   5.127   5.479  0.00  0.00    +0.000 HD
ENDBRANCH  19  25
BRANCH  20  27
ATOM     27  O   UNL     1      -0.530   6.925   3.174  0.00  0.00    +0.000 OA
ATOM     28  H   UNL     1       0.418   6.835   3.351  0.00  0.00    +0.000 HD
ENDBRANCH  20  27
BRANCH  22  29
ATOM     29  C   UNL     1       0.900   5.105  -0.335  0.00  0.00    +0.000 C 
BRANCH  29  30
ATOM     30  O   UNL     1       2.242   5.156  -0.791  0.00  0.00    +0.000 OA
ATOM     31  H   UNL     1       2.659   5.948  -0.412  0.00  0.00    +0.000 HD
ENDBRANCH  29  30
ENDBRANCH  22  29
ENDBRANCH   1  17
TORSDOF 12
