REMARK  Name = Lactulose
REMARK  13 active torsions:
REMARK  status: ('A' for Active; 'I' for Inactive)
REMARK    1  A    between atoms: O_1  and  C_2
REMARK    2  A    between atoms: C_2  and  C_3
REMARK    3  A    between atoms: C_5  and  O_6
REMARK    4  A    between atoms: C_5  and  C_7
REMARK    5  A    between atoms: C_7  and  O_8
REMARK    6  A    between atoms: C_9  and  O_10
REMARK    7  A    between atoms: C_11  and  O_12
REMARK    8  A    between atoms: O_12  and  C_13
REMARK    9  A    between atoms: C_15  and  C_16
REMARK   10  A    between atoms: C_16  and  O_17
REMARK   11  A    between atoms: C_18  and  O_19
REMARK   12  A    between atoms: C_20  and  O_21
REMARK   13  A    between atoms: C_22  and  O_23
REMARK                            x       y       z     vdW  Elec       q    Type
REMARK                         _______ _______ _______ _____ _____    ______ ____
ROOT
ATOM      1  O   UNL     1      -0.868  -0.090   0.251  0.00  0.00    +0.000 OA
ENDROOT
BRANCH   1   2
ATOM      2  C   UNL     1       0.245  -0.121   1.236  0.00  0.00    +0.000 C 
ATOM      3  O   UNL     1       0.001   0.397   2.545  0.00  0.00    +0.000 OA
ATOM      4  C   UNL     1       1.271   0.753   3.196  0.00  0.00    +0.000 C 
ATOM      5  C   UNL     1       1.965   1.940   2.473  0.00  0.00    +0.000 C 
ATOM      6  C   UNL     1       2.412   1.492   1.112  0.00  0.00    +0.000 C 
ATOM      7  C   UNL     1       1.244   0.742   0.582  0.00  0.00    +0.000 C 
BRANCH   5   8
ATOM      8  O   UNL     1       1.048   3.064   2.393  0.00  0.00    +0.000 OA
ATOM      9  H   UNL     1       0.136   2.734   2.249  0.00  0.00    +0.000 HD
ENDBRANCH   5   8
BRANCH   6  10
ATOM     10  O   UNL     1       2.724   2.648   0.298  0.00  0.00    +0.000 OA
ATOM     11  H   UNL     1       2.057   3.348   0.482  0.00  0.00    +0.000 HD
ENDBRANCH   6  10
BRANCH   7  12
ATOM     12  O   UNL     1       1.469   0.162  -0.627  0.00  0.00    +0.000 OA
ATOM     13  H   UNL     1       2.116  -0.582  -0.615  0.00  0.00    +0.000 HD
ENDBRANCH   7  12
BRANCH   4  14
ATOM     14  C   UNL     1       0.989   1.139   4.641  0.00  0.00    +0.000 C 
BRANCH  14  15
ATOM     15  O   UNL     1       1.857   2.185   5.065  0.00  0.00    +0.000 OA
ATOM     16  H   UNL     1       1.634   2.961   4.504  0.00  0.00    +0.000 HD
ENDBRANCH  14  15
ENDBRANCH   4  14
ENDBRANCH   1   2
BRANCH   1  21
ATOM     17  C   UNL     1      -1.861   0.750  -1.860  0.00  0.00    +0.000 C 
ATOM     18  O   UNL     1      -0.943   0.896  -2.997  0.00  0.00    +0.000 OA
ATOM     19  C   UNL     1       0.185   1.714  -2.645  0.00  0.00    +0.000 C 
ATOM     20  C   UNL     1      -0.156   2.202  -1.223  0.00  0.00    +0.000 C 
ATOM     21  C   UNL     1      -1.153   1.146  -0.551  0.00  0.00    +0.000 C 
BRANCH  19  22
ATOM     22  O   UNL     1       0.230   2.863  -3.510  0.00  0.00    +0.000 OA
ATOM     23  H   UNL     1      -0.232   3.569  -3.028  0.00  0.00    +0.000 HD
ENDBRANCH  19  22
BRANCH  20  24
ATOM     24  O   UNL     1      -0.759   3.524  -1.174  0.00  0.00    +0.000 OA
ATOM     25  H   UNL     1      -1.657   3.467  -1.566  0.00  0.00    +0.000 HD
ENDBRANCH  20  24
BRANCH  17  26
ATOM     26  C   UNL     1      -3.160   1.594  -1.995  0.00  0.00    +0.000 C 
BRANCH  26  27
ATOM     27  O   UNL     1      -2.982   3.004  -2.156  0.00  0.00    +0.000 OA
ATOM     28  H   UNL     1      -3.884   3.383  -2.203  0.00  0.00    +0.000 HD
ENDBRANCH  26  27
ENDBRANCH  17  26
BRANCH  19  29
ATOM     29  C   UNL     1       1.660   1.078  -2.844  0.00  0.00    +0.000 C 
BRANCH  29  30
ATOM     30  O   UNL     1       1.765  -0.356  -2.939  0.00  0.00    +0.000 OA
ATOM     31  H   UNL     1       2.197  -0.562  -3.779  0.00  0.00    +0.000 HD
ENDBRANCH  29  30
ENDBRANCH  19  29
ENDBRANCH   1  21
TORSDOF 13
