REMARK  Name = Lactic acid
REMARK  4 active torsions:
REMARK  status: ('A' for Active; 'I' for Inactive)
REMARK    1  A    between atoms: C_1  and  C_2
REMARK    2  A    between atoms: C_2  and  O_3
REMARK    3  A    between atoms: C_2  and  C_4
REMARK    4  A    between atoms: C_4  and  O_5
REMARK                            x       y       z     vdW  Elec       q    Type
REMARK                         _______ _______ _______ _____ _____    ______ ____
ROOT
ATOM      1  C   UNL     1       0.918   0.045   0.087  0.00  0.00    +0.000 C 
ATOM      2  C   UNL     1       2.435  -0.009   0.032  0.00  0.00    +0.000 C 
ENDROOT
BRANCH   2   3
ATOM      3  O   UNL     1       2.885  -0.725   1.178  0.00  0.00    +0.000 OA
ATOM      4  H   UNL     1       2.666  -1.664   1.054  0.00  0.00    +0.000 HD
ENDBRANCH   2   3
BRANCH   2   5
ATOM      5  C   UNL     1       3.022  -0.567  -1.283  0.00  0.00    +0.000 C 
ATOM      6  O   UNL     1       4.228  -0.680  -1.478  0.00  0.00    +0.000 OA
BRANCH   5   7
ATOM      7  O   UNL     1       2.139  -0.972  -2.222  0.00  0.00    +0.000 OA
ATOM      8  H   UNL     1       1.190  -0.894  -2.022  0.00  0.00    +0.000 HD
ENDBRANCH   5   7
ENDBRANCH   2   5
TORSDOF 3
