REMARK  Name = Lamivudine
REMARK  3 active torsions:
REMARK  status: ('A' for Active; 'I' for Inactive)
REMARK    1  A    between atoms: N_6  and  C_9
REMARK    2  A    between atoms: C_12  and  C_13
REMARK    3  A    between atoms: C_13  and  O_14
REMARK                            x       y       z     vdW  Elec       q    Type
REMARK                         _______ _______ _______ _____ _____    ______ ____
ROOT
ATOM      1  N   UNL     1       8.502   5.088   1.255  0.00  0.00    +0.000 N 
ATOM      2  C   UNL     1       8.051   3.823   1.009  0.00  0.00    +0.000 A 
ATOM      3  N   UNL     1       8.912   2.923   0.651  0.00  0.00    +0.000 NA
ATOM      4  C   UNL     1       8.495   1.630   0.426  0.00  0.00    +0.000 A 
ATOM      5  O   UNL     1       9.328   0.725   0.321  0.00  0.00    +0.000 OA
ATOM      6  N   UNL     1       7.120   1.370   0.365  0.00  0.00    +0.000 N 
ATOM      7  C   UNL     1       6.207   2.359   0.673  0.00  0.00    +0.000 A 
ATOM      8  C   UNL     1       6.610   3.540   1.138  0.00  0.00    +0.000 A 
ATOM      9  H   UNL     1       9.444   5.305   0.946  0.00  0.00    +0.000 HD
ATOM     10  H   UNL     1       7.868   5.867   1.367  0.00  0.00    +0.000 HD
ENDROOT
BRANCH   6  11
ATOM     11  C   UNL     1       6.656  -0.017   0.252  0.00  0.00    +0.000 C 
ATOM     12  C   UNL     1       7.120  -0.929   1.399  0.00  0.00    +0.000 C 
ATOM     13  S   UNL     1       6.863  -2.584   0.742  0.00  0.00    +0.000 S 
ATOM     14  C   UNL     1       6.959  -1.995  -0.969  0.00  0.00    +0.000 C 
ATOM     15  O   UNL     1       7.069  -0.563  -1.003  0.00  0.00    +0.000 OA
BRANCH  14  16
ATOM     16  C   UNL     1       8.145  -2.627  -1.718  0.00  0.00    +0.000 C 
BRANCH  16  17
ATOM     17  O   UNL     1       8.194  -2.227  -3.092  0.00  0.00    +0.000 OA
ATOM     18  H   UNL     1       7.327  -2.404  -3.490  0.00  0.00    +0.000 HD
ENDBRANCH  16  17
ENDBRANCH  14  16
ENDBRANCH   6  11
TORSDOF 3
