REMARK  Name = Lamotrigine
REMARK  2 active torsions:
REMARK  status: ('A' for Active; 'I' for Inactive)
REMARK    1  A    between atoms: C_4  and  N_5
REMARK    2  A    between atoms: C_6  and  C_9
REMARK                            x       y       z     vdW  Elec       q    Type
REMARK                         _______ _______ _______ _____ _____    ______ ____
ROOT
ATOM      1  N   UNL     1      -2.208   1.151  -0.024  0.00  0.00    +0.000 N 
ATOM      2  C   UNL     1      -1.073   0.391   0.000  0.00  0.00    +0.000 A 
ATOM      3  N   UNL     1       0.103   1.036  -0.017  0.00  0.00    +0.000 NA
ATOM      4  C   UNL     1       1.205   0.267  -0.046  0.00  0.00    +0.000 A 
ATOM      5  C   UNL     1       1.132  -1.130  -0.043  0.00  0.00    +0.000 A 
ATOM      6  N   UNL     1      -0.075  -1.733  -0.016  0.00  0.00    +0.000 NA
ATOM      7  N   UNL     1      -1.190  -0.954   0.007  0.00  0.00    +0.000 NA
ATOM      8  H   UNL     1      -2.099   2.150   0.034  0.00  0.00    +0.000 HD
ATOM      9  H   UNL     1      -3.093   0.689   0.102  0.00  0.00    +0.000 HD
ENDROOT
BRANCH   5  10
ATOM     10  C   UNL     1       2.303  -2.014  -0.054  0.00  0.00    +0.000 A 
ATOM     11  C   UNL     1       3.292  -1.986   0.958  0.00  0.00    +0.000 A 
ATOM     12 CL   UNL     1       3.086  -0.973   2.361  0.00  0.00    +0.000 Cl
ATOM     13  C   UNL     1       4.445  -2.777   0.840  0.00  0.00    +0.000 A 
ATOM     14 CL   UNL     1       5.735  -2.715   1.993  0.00  0.00    +0.000 Cl
ATOM     15  C   UNL     1       4.600  -3.637  -0.247  0.00  0.00    +0.000 A 
ATOM     16  C   UNL     1       3.612  -3.712  -1.225  0.00  0.00    +0.000 A 
ATOM     17  C   UNL     1       2.479  -2.904  -1.133  0.00  0.00    +0.000 A 
ENDBRANCH   5  10
BRANCH   4  18
ATOM     18  N   UNL     1       2.421   0.948  -0.215  0.00  0.00    +0.000 N 
ATOM     19  H   UNL     1       2.284   1.931   0.003  0.00  0.00    +0.000 HD
ATOM     20  H   UNL     1       3.198   0.542   0.293  0.00  0.00    +0.000 HD
ENDBRANCH   4  18
TORSDOF 2
