REMARK  Name = Lansoprazole
REMARK  7 active torsions:
REMARK  status: ('A' for Active; 'I' for Inactive)
REMARK    1  A    between atoms: C_1  and  C_2
REMARK    2  A    between atoms: C_3  and  O_4
REMARK    3  A    between atoms: O_4  and  C_5
REMARK    4  A    between atoms: C_5  and  C_6
REMARK    5  A    between atoms: C_13  and  C_14
REMARK    6  A    between atoms: C_14  and  S_15
REMARK    7  A    between atoms: S_15  and  C_17
REMARK                            x       y       z     vdW  Elec       q    Type
REMARK                         _______ _______ _______ _____ _____    ______ ____
ROOT
ATOM      1  C   UNL     1       2.561   0.017  -0.157  0.00  0.00    +0.000 C 
ATOM      2  C   UNL     1       1.074   0.107  -0.105  0.00  0.00    +0.000 A 
ATOM      3  C   UNL     1       0.385   1.331  -0.053  0.00  0.00    +0.000 A 
ATOM      4  C   UNL     1      -1.007   1.308  -0.011  0.00  0.00    +0.000 A 
ATOM      5  C   UNL     1      -1.661   0.087  -0.003  0.00  0.00    +0.000 A 
ATOM      6  N   UNL     1      -1.031  -1.111   0.012  0.00  0.00    +0.000 NA
ATOM      7  C   UNL     1       0.331  -1.115   0.002  0.00  0.00    +0.000 A 
ENDROOT
BRANCH   3   8
ATOM      8  O   UNL     1       0.921   2.605  -0.011  0.00  0.00    +0.000 OA
BRANCH   8   9
ATOM      9  C   UNL     1       2.345   2.684  -0.003  0.00  0.00    +0.000 C 
BRANCH   9  10
ATOM     10  C   UNL     1       3.002   4.032   0.022  0.00  0.00    +0.000 C 
ATOM     11  F   UNL     1       2.683   4.747  -1.073  0.00  0.00    +0.000 F 
ATOM     12  F   UNL     1       2.688   4.727   1.128  0.00  0.00    +0.000 F 
ATOM     13  F   UNL     1       4.352   3.859   0.012  0.00  0.00    +0.000 F 
ENDBRANCH   9  10
ENDBRANCH   8   9
ENDBRANCH   3   8
BRANCH   7  14
ATOM     14  C   UNL     1       0.948  -2.532   0.115  0.00  0.00    +0.000 C 
BRANCH  14  15
ATOM     15  S   UNL     1       2.696  -2.600   0.428  0.00  0.00    +0.000 S 
ATOM     16  O   UNL     1       3.154  -2.129   1.767  0.00  0.00    +0.000 OA
BRANCH  15  17
ATOM     17  C   UNL     1       3.457  -4.028   0.043  0.00  0.00    +0.000 A 
ATOM     18  N   UNL     1       4.772  -4.127   0.077  0.00  0.00    +0.000 NA
ATOM     19  C   UNL     1       5.011  -5.457   0.039  0.00  0.00    +0.000 A 
ATOM     20  C   UNL     1       6.227  -6.137   0.102  0.00  0.00    +0.000 A 
ATOM     21  C   UNL     1       6.175  -7.532   0.102  0.00  0.00    +0.000 A 
ATOM     22  C   UNL     1       4.949  -8.213   0.076  0.00  0.00    +0.000 A 
ATOM     23  C   UNL     1       3.730  -7.540   0.020  0.00  0.00    +0.000 A 
ATOM     24  C   UNL     1       3.814  -6.165  -0.035  0.00  0.00    +0.000 A 
ATOM     25  N   UNL     1       2.850  -5.210  -0.142  0.00  0.00    +0.000 N 
ATOM     26  H   UNL     1       1.847  -5.367  -0.106  0.00  0.00    +0.000 HD
ENDBRANCH  15  17
ENDBRANCH  14  15
ENDBRANCH   7  14
TORSDOF 6
