REMARK  Name = Lanthanum carbonate
REMARK  0 active torsions:
REMARK  status: ('A' for Active; 'I' for Inactive)
REMARK                            x       y       z     vdW  Elec       q    Type
REMARK                         _______ _______ _______ _____ _____    ______ ____
ROOT
ATOM      1 LA   UNL     1       1.057   0.022  -0.079  0.00  0.00    +0.000 La
ENDROOT
TORSDOF 0
REMARK  Name = Lanthanum carbonate
REMARK  0 active torsions:
REMARK  status: ('A' for Active; 'I' for Inactive)
REMARK                            x       y       z     vdW  Elec       q    Type
REMARK                         _______ _______ _______ _____ _____    ______ ____
ROOT
ATOM      1 LA   UNL     1       0.941   0.066  -0.047  0.00  0.00    +0.000 La
ENDROOT
TORSDOF 0
REMARK  Name = Lanthanum carbonate
REMARK  0 active torsions:
REMARK  status: ('A' for Active; 'I' for Inactive)
REMARK                            x       y       z     vdW  Elec       q    Type
REMARK                         _______ _______ _______ _____ _____    ______ ____
ROOT
ATOM      1  O   UNL     1       1.068  -0.018  -0.071  0.00  0.00    +0.000 OA
ATOM      2  C   UNL     1       2.488  -0.018  -0.071  0.00  0.00    +0.000 C 
ATOM      3  O   UNL     1       3.198  -0.878   0.808  0.00  0.00    +0.000 OA
ATOM      4  O   UNL     1       3.123   0.751  -0.858  0.00  0.00    +0.000 OA
ENDROOT
TORSDOF 0
REMARK  Name = Lanthanum carbonate
REMARK  0 active torsions:
REMARK  status: ('A' for Active; 'I' for Inactive)
REMARK                            x       y       z     vdW  Elec       q    Type
REMARK                         _______ _______ _______ _____ _____    ______ ____
ROOT
ATOM      1  O   UNL     1       1.063   0.016   0.076  0.00  0.00    +0.000 OA
ATOM      2  C   UNL     1       2.483   0.016   0.076  0.00  0.00    +0.000 C 
ATOM      3  O   UNL     1       3.193   0.294   1.274  0.00  0.00    +0.000 OA
ATOM      4  O   UNL     1       3.119  -0.233  -0.996  0.00  0.00    +0.000 OA
ENDROOT
TORSDOF 0
REMARK  Name = Lanthanum carbonate
REMARK  0 active torsions:
REMARK  status: ('A' for Active; 'I' for Inactive)
REMARK                            x       y       z     vdW  Elec       q    Type
REMARK                         _______ _______ _______ _____ _____    ______ ____
ROOT
ATOM      1  O   UNL     1       1.006   0.083   0.056  0.00  0.00    +0.000 OA
ATOM      2  C   UNL     1       2.426   0.083   0.056  0.00  0.00    +0.000 C 
ATOM      3  O   UNL     1       3.136  -0.168   1.260  0.00  0.00    +0.000 OA
ATOM      4  O   UNL     1       3.062   0.307  -1.022  0.00  0.00    +0.000 OA
ENDROOT
TORSDOF 0
