REMARK  Name = Lapatinib
REMARK  11 active torsions:
REMARK  status: ('A' for Active; 'I' for Inactive)
REMARK    1  A    between atoms: C_1  and  S_2
REMARK    2  A    between atoms: S_2  and  C_5
REMARK    3  A    between atoms: C_5  and  C_6
REMARK    4  A    between atoms: C_6  and  N_7
REMARK    5  A    between atoms: N_7  and  C_8
REMARK    6  A    between atoms: C_8  and  C_9
REMARK    7  A    between atoms: C_12  and  C_14
REMARK    8  A    between atoms: N_24  and  C_25
REMARK    9  A    between atoms: C_29  and  O_30
REMARK   10  A    between atoms: O_30  and  C_31
REMARK   11  A    between atoms: C_31  and  C_32
REMARK                            x       y       z     vdW  Elec       q    Type
REMARK                         _______ _______ _______ _____ _____    ______ ____
ROOT
ATOM      1  C   UNL     1       7.641  -6.473  -4.681  0.00  0.00    +0.000 A 
ATOM      2  C   UNL     1       6.432  -7.145  -4.646  0.00  0.00    +0.000 A 
ATOM      3  C   UNL     1       6.219  -8.458  -5.161  0.00  0.00    +0.000 A 
ATOM      4  C   UNL     1       7.349  -9.188  -5.535  0.00  0.00    +0.000 A 
ATOM      5  C   UNL     1       8.591  -8.550  -5.477  0.00  0.00    +0.000 A 
ATOM      6  C   UNL     1       8.739  -7.204  -5.092  0.00  0.00    +0.000 A 
ATOM      7  N   UNL     1       7.277 -10.466  -5.925  0.00  0.00    +0.000 NA
ATOM      8  C   UNL     1       6.055 -11.019  -5.965  0.00  0.00    +0.000 A 
ATOM      9  N   UNL     1       4.890 -10.406  -5.707  0.00  0.00    +0.000 NA
ATOM     10  C   UNL     1       4.966  -9.117  -5.320  0.00  0.00    +0.000 A 
ATOM     11  N   UNL     1       3.726  -8.477  -5.073  0.00  0.00    +0.000 N 
ATOM     12  H   UNL     1       2.932  -9.100  -5.143  0.00  0.00    +0.000 HD
ENDROOT
BRANCH  11  13
ATOM     13  C   UNL     1       3.461  -7.111  -4.883  0.00  0.00    +0.000 A 
ATOM     14  C   UNL     1       3.915  -6.190  -5.831  0.00  0.00    +0.000 A 
ATOM     15  C   UNL     1       4.029  -4.827  -5.553  0.00  0.00    +0.000 A 
ATOM     16 CL   UNL     1       4.941  -3.996  -6.776  0.00  0.00    +0.000 Cl
ATOM     17  C   UNL     1       3.548  -4.304  -4.343  0.00  0.00    +0.000 A 
ATOM     18  C   UNL     1       3.039  -5.232  -3.388  0.00  0.00    +0.000 A 
ATOM     19  C   UNL     1       2.987  -6.623  -3.662  0.00  0.00    +0.000 A 
BRANCH  17  20
ATOM     20  O   UNL     1       3.495  -2.962  -4.003  0.00  0.00    +0.000 OA
BRANCH  20  21
ATOM     21  C   UNL     1       4.001  -1.988  -4.984  0.00  0.00    +0.000 C 
BRANCH  21  22
ATOM     22  C   UNL     1       3.879  -0.514  -4.619  0.00  0.00    +0.000 A 
ATOM     23  C   UNL     1       3.653  -0.256  -3.315  0.00  0.00    +0.000 A 
ATOM     24  C   UNL     1       3.775   0.990  -2.725  0.00  0.00    +0.000 A 
ATOM     25  F   UNL     1       4.047   1.100  -1.442  0.00  0.00    +0.000 F 
ATOM     26  C   UNL     1       3.910   2.119  -3.443  0.00  0.00    +0.000 A 
ATOM     27  C   UNL     1       4.130   1.923  -4.787  0.00  0.00    +0.000 A 
ATOM     28  C   UNL     1       4.162   0.616  -5.366  0.00  0.00    +0.000 A 
ENDBRANCH  21  22
ENDBRANCH  20  21
ENDBRANCH  17  20
ENDBRANCH  11  13
BRANCH   1  32
ATOM     29  C   UNL     1       7.403  -3.134  -3.344  0.00  0.00    +0.000 A 
ATOM     30  C   UNL     1       8.006  -2.815  -4.551  0.00  0.00    +0.000 A 
ATOM     31  C   UNL     1       8.164  -4.020  -5.271  0.00  0.00    +0.000 A 
ATOM     32  C   UNL     1       7.705  -5.032  -4.455  0.00  0.00    +0.000 A 
ATOM     33  O   UNL     1       7.197  -4.500  -3.294  0.00  0.00    +0.000 OA
BRANCH  29  34
ATOM     34  C   UNL     1       6.972  -2.261  -2.170  0.00  0.00    +0.000 C 
BRANCH  34  35
ATOM     35  N   UNL     1       5.511  -2.322  -1.929  0.00  0.00    +0.000 NA
ATOM     36  H   UNL     1       5.143  -2.123  -2.855  0.00  0.00    +0.000 HD
BRANCH  35  37
ATOM     37  C   UNL     1       4.977  -1.334  -0.908  0.00  0.00    +0.000 C 
BRANCH  37  38
ATOM     38  C   UNL     1       3.382  -1.285  -0.636  0.00  0.00    +0.000 C 
BRANCH  38  40
ATOM     39  C   UNL     1       0.981  -0.102   0.142  0.00  0.00    +0.000 C 
ATOM     40  S   UNL     1       2.717  -0.113   0.597  0.00  0.00    +0.000 S 
ATOM     41  O   UNL     1       3.080   1.297   0.441  0.00  0.00    +0.000 OA
ATOM     42  O   UNL     1       2.888  -0.728   1.879  0.00  0.00    +0.000 OA
ENDBRANCH  38  40
ENDBRANCH  37  38
ENDBRANCH  35  37
ENDBRANCH  34  35
ENDBRANCH  29  34
ENDBRANCH   1  32
TORSDOF 10
