REMARK  Name = Lapyrium
REMARK  17 active torsions:
REMARK  status: ('A' for Active; 'I' for Inactive)
REMARK    1  A    between atoms: C_1  and  C_2
REMARK    2  A    between atoms: C_2  and  C_3
REMARK    3  A    between atoms: C_3  and  C_4
REMARK    4  A    between atoms: C_4  and  C_5
REMARK    5  A    between atoms: C_5  and  C_6
REMARK    6  A    between atoms: C_6  and  C_7
REMARK    7  A    between atoms: C_7  and  C_8
REMARK    8  A    between atoms: C_8  and  C_9
REMARK    9  A    between atoms: C_9  and  C_10
REMARK   10  A    between atoms: C_10  and  C_11
REMARK   11  A    between atoms: C_11  and  C_12
REMARK   12  A    between atoms: C_12  and  O_14
REMARK   13  A    between atoms: O_14  and  C_15
REMARK   14  A    between atoms: C_15  and  C_16
REMARK   15  A    between atoms: C_16  and  N_17
REMARK   16  A    between atoms: C_18  and  C_20
REMARK   17  A    between atoms: C_20  and  N_21
REMARK                            x       y       z     vdW  Elec       q    Type
REMARK                         _______ _______ _______ _____ _____    ______ ____
ROOT
ATOM      1  O   UNL     1      13.234  -0.778   8.302  0.00  0.00    +0.000 OA
ENDROOT
BRANCH   1   2
ATOM      2  C   UNL     1      12.680  -0.669   7.054  0.00  0.00    +0.000 C 
ATOM      3  O   UNL     1      13.347  -0.578   6.026  0.00  0.00    +0.000 OA
BRANCH   2   4
ATOM      4  C   UNL     1      11.164  -0.672   7.098  0.00  0.00    +0.000 C 
BRANCH   4   5
ATOM      5  C   UNL     1      10.588  -0.548   5.684  0.00  0.00    +0.000 C 
BRANCH   5   6
ATOM      6  C   UNL     1       9.063  -0.547   5.670  0.00  0.00    +0.000 C 
BRANCH   6   7
ATOM      7  C   UNL     1       8.545  -0.421   4.240  0.00  0.00    +0.000 C 
BRANCH   7   8
ATOM      8  C   UNL     1       7.024  -0.420   4.223  0.00  0.00    +0.000 C 
BRANCH   8   9
ATOM      9  C   UNL     1       6.510  -0.295   2.798  0.00  0.00    +0.000 C 
BRANCH   9  10
ATOM     10  C   UNL     1       4.991  -0.294   2.788  0.00  0.00    +0.000 C 
BRANCH  10  11
ATOM     11  C   UNL     1       4.476  -0.169   1.363  0.00  0.00    +0.000 C 
BRANCH  11  12
ATOM     12  C   UNL     1       2.956  -0.168   1.352  0.00  0.00    +0.000 C 
BRANCH  12  14
ATOM     13  C   UNL     1       0.916  -0.042  -0.079  0.00  0.00    +0.000 C 
ATOM     14  C   UNL     1       2.432  -0.043  -0.072  0.00  0.00    +0.000 C 
ENDBRANCH  12  14
ENDBRANCH  11  12
ENDBRANCH  10  11
ENDBRANCH   9  10
ENDBRANCH   8   9
ENDBRANCH   7   8
ENDBRANCH   6   7
ENDBRANCH   5   6
ENDBRANCH   4   5
ENDBRANCH   2   4
ENDBRANCH   1   2
BRANCH   1  15
ATOM     15  C   UNL     1      14.678  -0.777   8.290  0.00  0.00    +0.000 C 
BRANCH  15  16
ATOM     16  C   UNL     1      15.242  -0.902   9.714  0.00  0.00    +0.000 C 
BRANCH  16  17
ATOM     17  N   UNL     1      16.713  -0.904   9.792  0.00  0.00    +0.000 N 
ATOM     18  C   UNL     1      17.352  -1.007  11.017  0.00  0.00    +0.000 C 
ATOM     19  O   UNL     1      16.735  -1.107  12.075  0.00  0.00    +0.000 OA
ATOM     20  H   UNL     1      17.231  -0.831   8.922  0.00  0.00    +0.000 HD
BRANCH  18  21
ATOM     21  C   UNL     1      18.877  -0.997  11.005  0.00  0.00    +0.000 C 
BRANCH  21  22
ATOM     22  N   UNL     1      19.425  -1.104  12.388  0.00  0.00    +0.000 N 
ATOM     23  C   UNL     1      19.766   0.016  13.072  0.00  0.00    +0.000 A 
ATOM     24  C   UNL     1      20.420  -0.075  14.299  0.00  0.00    +0.000 A 
ATOM     25  C   UNL     1      20.603  -1.319  14.886  0.00  0.00    +0.000 A 
ATOM     26  C   UNL     1      20.120  -2.447  14.237  0.00  0.00    +0.000 A 
ATOM     27  C   UNL     1      19.577  -2.323  12.961  0.00  0.00    +0.000 A 
ENDBRANCH  21  22
ENDBRANCH  18  21
ENDBRANCH  16  17
ENDBRANCH  15  16
ENDBRANCH   1  15
TORSDOF 16
