REMARK  Name = Laropiprant
REMARK  7 active torsions:
REMARK  status: ('A' for Active; 'I' for Inactive)
REMARK    1  A    between atoms: C_1  and  S_2
REMARK    2  A    between atoms: S_2  and  C_5
REMARK    3  A    between atoms: N_7  and  C_8
REMARK    4  A    between atoms: C_8  and  C_9
REMARK    5  A    between atoms: C_20  and  C_21
REMARK    6  A    between atoms: C_21  and  C_22
REMARK    7  A    between atoms: C_22  and  O_23
REMARK                            x       y       z     vdW  Elec       q    Type
REMARK                         _______ _______ _______ _____ _____    ______ ____
ROOT
ATOM      1  C   UNL     1       3.307   0.665   1.714  0.00  0.00    +0.000 A 
ATOM      2  C   UNL     1       3.247   2.106   1.768  0.00  0.00    +0.000 A 
ATOM      3  N   UNL     1       2.908   3.239   0.907  0.00  0.00    +0.000 N 
ATOM      4  C   UNL     1       3.035   4.395   1.792  0.00  0.00    +0.000 A 
ATOM      5  C   UNL     1       3.506   3.974   3.013  0.00  0.00    +0.000 A 
ATOM      6  C   UNL     1       3.728   5.025   4.039  0.00  0.00    +0.000 C 
ATOM      7  C   UNL     1       2.954   6.213   3.456  0.00  0.00    +0.000 C 
ATOM      8  C   UNL     1       2.893   5.936   1.888  0.00  0.00    +0.000 C 
ATOM      9  C   UNL     1       3.664   2.605   3.030  0.00  0.00    +0.000 A 
ATOM     10  C   UNL     1       4.118   1.752   4.068  0.00  0.00    +0.000 A 
ATOM     11  C   UNL     1       4.220   0.394   3.888  0.00  0.00    +0.000 A 
ATOM     12  F   UNL     1       4.668  -0.419   4.846  0.00  0.00    +0.000 F 
ATOM     13  C   UNL     1       3.834  -0.146   2.718  0.00  0.00    +0.000 A 
ENDROOT
BRANCH   1  15
ATOM     14  C   UNL     1       0.900  -0.284   0.719  0.00  0.00    +0.000 C 
ATOM     15  S   UNL     1       2.904  -0.364   0.383  0.00  0.00    +0.000 S 
ATOM     16  O   UNL     1       3.309  -1.728   0.561  0.00  0.00    +0.000 OA
ATOM     17  O   UNL     1       3.706   0.404  -0.564  0.00  0.00    +0.000 OA
ENDBRANCH   1  15
BRANCH   3  18
ATOM     18  C   UNL     1       2.495   3.318  -0.637  0.00  0.00    +0.000 C 
BRANCH  18  19
ATOM     19  C   UNL     1       2.319   2.153  -1.683  0.00  0.00    +0.000 A 
ATOM     20  C   UNL     1       1.310   1.213  -1.527  0.00  0.00    +0.000 A 
ATOM     21  C   UNL     1       1.436  -0.138  -2.067  0.00  0.00    +0.000 A 
ATOM     22  C   UNL     1       2.454  -0.494  -2.920  0.00  0.00    +0.000 A 
ATOM     23 CL   UNL     1       2.888  -2.165  -3.088  0.00  0.00    +0.000 Cl
ATOM     24  C   UNL     1       3.236   0.538  -3.386  0.00  0.00    +0.000 A 
ATOM     25  C   UNL     1       3.179   1.846  -2.771  0.00  0.00    +0.000 A 
ENDBRANCH  18  19
ENDBRANCH   3  18
BRANCH   8  26
ATOM     26  C   UNL     1       1.637   6.552   1.328  0.00  0.00    +0.000 C 
BRANCH  26  27
ATOM     27  C   UNL     1       1.595   6.521  -0.171  0.00  0.00    +0.000 C 
ATOM     28  O   UNL     1       0.586   6.794  -0.803  0.00  0.00    +0.000 OA
BRANCH  27  29
ATOM     29  O   UNL     1       2.739   6.190  -0.803  0.00  0.00    +0.000 OA
ATOM     30  H   UNL     1       3.482   5.862  -0.260  0.00  0.00    +0.000 HD
ENDBRANCH  27  29
ENDBRANCH  26  27
ENDBRANCH   8  26
TORSDOF 6
