REMARK  Name = Larotrectinib
REMARK  3 active torsions:
REMARK  status: ('A' for Active; 'I' for Inactive)
REMARK    1  A    between atoms: O_1  and  C_2
REMARK    2  A    between atoms: N_9  and  C_10
REMARK    3  A    between atoms: C_23  and  C_24
REMARK                            x       y       z     vdW  Elec       q    Type
REMARK                         _______ _______ _______ _____ _____    ______ ____
ROOT
ATOM      1  C   UNL     1       3.731  -3.648  -0.513  0.00  0.00    +0.000 A 
ATOM      2  C   UNL     1       4.998  -3.544   0.043  0.00  0.00    +0.000 A 
ATOM      3  N   UNL     1       5.514  -2.741   1.035  0.00  0.00    +0.000 NA
ATOM      4  C   UNL     1       6.799  -2.808   1.286  0.00  0.00    +0.000 A 
ATOM      5  C   UNL     1       7.714  -3.775   0.526  0.00  0.00    +0.000 A 
ATOM      6  C   UNL     1       7.118  -4.667  -0.279  0.00  0.00    +0.000 A 
ATOM      7  N   UNL     1       5.761  -4.556  -0.553  0.00  0.00    +0.000 N 
ATOM      8  N   UNL     1       5.018  -5.353  -1.364  0.00  0.00    +0.000 NA
ATOM      9  C   UNL     1       3.806  -4.794  -1.342  0.00  0.00    +0.000 A 
ATOM     10  N   UNL     1       7.347  -2.143   2.379  0.00  0.00    +0.000 N 
ATOM     11  C   UNL     1       8.478  -1.240   2.274  0.00  0.00    +0.000 C 
ATOM     12  C   UNL     1       9.218  -1.481   3.576  0.00  0.00    +0.000 C 
ATOM     13  C   UNL     1       8.084  -1.600   4.588  0.00  0.00    +0.000 C 
ATOM     14  C   UNL     1       6.907  -2.255   3.802  0.00  0.00    +0.000 C 
ENDROOT
BRANCH   1  22
ATOM     15  C   UNL     1      -0.699  -0.070  -0.383  0.00  0.00    +0.000 C 
ATOM     16  C   UNL     1       0.079   1.150   0.093  0.00  0.00    +0.000 C 
ATOM     17  C   UNL     1       1.538   0.703   0.026  0.00  0.00    +0.000 C 
ATOM     18  N   UNL     1       1.521  -0.760  -0.022  0.00  0.00    +0.000 N 
ATOM     19  C   UNL     1       0.154  -1.240   0.129  0.00  0.00    +0.000 C 
ATOM     20  C   UNL     1       2.704  -1.457  -0.218  0.00  0.00    +0.000 C 
ATOM     21  O   UNL     1       3.750  -0.825  -0.421  0.00  0.00    +0.000 OA
ATOM     22  N   UNL     1       2.615  -2.837  -0.258  0.00  0.00    +0.000 N 
ATOM     23  H   UNL     1       1.714  -3.248  -0.438  0.00  0.00    +0.000 HD
BRANCH  15  24
ATOM     24  O   UNL     1      -2.017  -0.071   0.138  0.00  0.00    +0.000 OA
ATOM     25  H   UNL     1      -2.473   0.709  -0.227  0.00  0.00    +0.000 HD
ENDBRANCH  15  24
ENDBRANCH   1  22
BRANCH  14  26
ATOM     26  C   UNL     1       6.642  -3.671   4.301  0.00  0.00    +0.000 A 
ATOM     27  C   UNL     1       6.260  -3.952   5.617  0.00  0.00    +0.000 A 
ATOM     28  F   UNL     1       6.166  -2.963   6.519  0.00  0.00    +0.000 F 
ATOM     29  C   UNL     1       5.986  -5.266   6.039  0.00  0.00    +0.000 A 
ATOM     30  C   UNL     1       6.058  -6.332   5.141  0.00  0.00    +0.000 A 
ATOM     31  C   UNL     1       6.429  -6.072   3.846  0.00  0.00    +0.000 A 
ATOM     32  F   UNL     1       6.515  -7.045   2.932  0.00  0.00    +0.000 F 
ATOM     33  C   UNL     1       6.735  -4.783   3.465  0.00  0.00    +0.000 A 
ENDBRANCH  14  26
TORSDOF 3
