REMARK  Name = Lasmiditan
REMARK  4 active torsions:
REMARK  status: ('A' for Active; 'I' for Inactive)
REMARK    1  A    between atoms: C_1  and  N_2
REMARK    2  A    between atoms: C_5  and  C_8
REMARK    3  A    between atoms: C_8  and  C_10
REMARK    4  A    between atoms: C_16  and  C_18
REMARK                            x       y       z     vdW  Elec       q    Type
REMARK                         _______ _______ _______ _____ _____    ______ ____
ROOT
ATOM      1  C   UNL     1       2.538  -1.153  -2.614  0.00  0.00    +0.000 A 
ATOM      2  C   UNL     1       2.001  -2.429  -2.496  0.00  0.00    +0.000 A 
ATOM      3  C   UNL     1       2.678  -3.475  -3.076  0.00  0.00    +0.000 A 
ATOM      4  C   UNL     1       3.809  -3.197  -3.822  0.00  0.00    +0.000 A 
ATOM      5  C   UNL     1       4.254  -1.888  -3.987  0.00  0.00    +0.000 A 
ATOM      6  N   UNL     1       5.372  -1.581  -4.796  0.00  0.00    +0.000 N 
ATOM      7  C   UNL     1       6.126  -2.511  -5.494  0.00  0.00    +0.000 C 
ATOM      8  O   UNL     1       5.961  -3.733  -5.483  0.00  0.00    +0.000 OA
ATOM      9  N   UNL     1       3.637  -0.854  -3.372  0.00  0.00    +0.000 NA
ATOM     10  H   UNL     1       5.581  -0.589  -4.845  0.00  0.00    +0.000 HD
ENDROOT
BRANCH   7  11
ATOM     11  C   UNL     1       7.239  -2.054  -6.335  0.00  0.00    +0.000 A 
ATOM     12  C   UNL     1       8.196  -1.159  -5.872  0.00  0.00    +0.000 A 
ATOM     13  F   UNL     1       8.094  -0.620  -4.650  0.00  0.00    +0.000 F 
ATOM     14  C   UNL     1       9.303  -0.832  -6.657  0.00  0.00    +0.000 A 
ATOM     15  C   UNL     1       9.450  -1.416  -7.911  0.00  0.00    +0.000 A 
ATOM     16  F   UNL     1      10.499  -1.087  -8.674  0.00  0.00    +0.000 F 
ATOM     17  C   UNL     1       8.525  -2.333  -8.384  0.00  0.00    +0.000 A 
ATOM     18  C   UNL     1       7.430  -2.654  -7.588  0.00  0.00    +0.000 A 
ATOM     19  F   UNL     1       6.555  -3.551  -8.066  0.00  0.00    +0.000 F 
ENDBRANCH   7  11
BRANCH   1  20
ATOM     20  C   UNL     1       1.894  -0.014  -1.900  0.00  0.00    +0.000 C 
ATOM     21  O   UNL     1       1.450   0.915  -2.574  0.00  0.00    +0.000 OA
BRANCH  20  26
ATOM     22  C   UNL     1      -2.403   0.012  -0.099  0.00  0.00    +0.000 C 
ATOM     23  N   UNL     1      -1.005   0.009   0.338  0.00  0.00    +0.000 NA
ATOM     24  C   UNL     1      -0.338   1.224  -0.162  0.00  0.00    +0.000 C 
ATOM     25  C   UNL     1       1.155   1.236   0.188  0.00  0.00    +0.000 C 
ATOM     26  C   UNL     1       1.858  -0.024  -0.350  0.00  0.00    +0.000 C 
ATOM     27  C   UNL     1       1.129  -1.226   0.259  0.00  0.00    +0.000 C 
ATOM     28  C   UNL     1      -0.347  -1.207  -0.149  0.00  0.00    +0.000 C 
ENDBRANCH  20  26
ENDBRANCH   1  20
TORSDOF 3
