REMARK  Name = Lasofoxifene
REMARK  7 active torsions:
REMARK  status: ('A' for Active; 'I' for Inactive)
REMARK    1  A    between atoms: C_2  and  C_28
REMARK    2  A    between atoms: C_7  and  O_8
REMARK    3  A    between atoms: C_12  and  C_14
REMARK    4  A    between atoms: C_17  and  O_18
REMARK    5  A    between atoms: O_18  and  C_19
REMARK    6  A    between atoms: C_19  and  C_20
REMARK    7  A    between atoms: C_20  and  N_21
REMARK                            x       y       z     vdW  Elec       q    Type
REMARK                         _______ _______ _______ _____ _____    ______ ____
ROOT
ATOM      1  C   UNL     1       2.216  -0.076  -0.160  0.00  0.00    +0.000 C 
ATOM      2  C   UNL     1       2.677  -1.166   0.830  0.00  0.00    +0.000 C 
ATOM      3  C   UNL     1       4.197  -1.290   0.763  0.00  0.00    +0.000 C 
ATOM      4  C   UNL     1       4.869   0.058   0.937  0.00  0.00    +0.000 A 
ATOM      5  C   UNL     1       6.266   0.063   1.082  0.00  0.00    +0.000 A 
ATOM      6  C   UNL     1       6.945   1.270   1.186  0.00  0.00    +0.000 A 
ATOM      7  C   UNL     1       6.261   2.476   1.146  0.00  0.00    +0.000 A 
ATOM      8  C   UNL     1       4.877   2.490   0.971  0.00  0.00    +0.000 A 
ATOM      9  C   UNL     1       4.163   1.292   0.813  0.00  0.00    +0.000 A 
ATOM     10  C   UNL     1       2.667   1.336   0.395  0.00  0.00    +0.000 C 
ENDROOT
BRANCH  10  11
ATOM     11  C   UNL     1       2.271   2.532  -0.520  0.00  0.00    +0.000 A 
ATOM     12  C   UNL     1       2.779   2.728  -1.808  0.00  0.00    +0.000 A 
ATOM     13  C   UNL     1       2.646   3.803  -2.632  0.00  0.00    +0.000 A 
ATOM     14  C   UNL     1       1.731   4.733  -2.251  0.00  0.00    +0.000 A 
ATOM     15  C   UNL     1       1.079   4.578  -1.015  0.00  0.00    +0.000 A 
ATOM     16  C   UNL     1       1.385   3.530  -0.120  0.00  0.00    +0.000 A 
BRANCH  14  17
ATOM     17  O   UNL     1       1.573   5.655  -3.237  0.00  0.00    +0.000 OA
BRANCH  17  18
ATOM     18  C   UNL     1       0.761   6.705  -2.793  0.00  0.00    +0.000 C 
BRANCH  18  19
ATOM     19  C   UNL     1       0.837   7.895  -3.741  0.00  0.00    +0.000 C 
BRANCH  19  20
ATOM     20  N   UNL     1       0.176   9.109  -3.249  0.00  0.00    +0.000 NA
ATOM     21  C   UNL     1       0.134   9.240  -1.790  0.00  0.00    +0.000 C 
ATOM     22  C   UNL     1      -1.291   8.881  -1.416  0.00  0.00    +0.000 C 
ATOM     23  C   UNL     1      -2.060   9.582  -2.511  0.00  0.00    +0.000 C 
ATOM     24  C   UNL     1      -1.174   9.405  -3.748  0.00  0.00    +0.000 C 
ENDBRANCH  19  20
ENDBRANCH  18  19
ENDBRANCH  17  18
ENDBRANCH  14  17
ENDBRANCH  10  11
BRANCH   1  25
ATOM     25  C   UNL     1       2.763  -0.471  -1.543  0.00  0.00    +0.000 A 
ATOM     26  C   UNL     1       2.262  -1.532  -2.282  0.00  0.00    +0.000 A 
ATOM     27  C   UNL     1       2.860  -1.849  -3.511  0.00  0.00    +0.000 A 
ATOM     28  C   UNL     1       3.767  -0.980  -4.120  0.00  0.00    +0.000 A 
ATOM     29  C   UNL     1       4.228   0.090  -3.409  0.00  0.00    +0.000 A 
ATOM     30  C   UNL     1       3.909   0.142  -2.067  0.00  0.00    +0.000 A 
ENDBRANCH   1  25
BRANCH   6  31
ATOM     31  O   UNL     1       8.301   1.314   1.328  0.00  0.00    +0.000 OA
ATOM     32  H   UNL     1       8.638   0.404   1.365  0.00  0.00    +0.000 HD
ENDBRANCH   6  31
TORSDOF 7
