REMARK  Name = Latanoprost
REMARK  19 active torsions:
REMARK  status: ('A' for Active; 'I' for Inactive)
REMARK    1  A    between atoms: C_1  and  C_2
REMARK    2  A    between atoms: C_2  and  C_3
REMARK    3  A    between atoms: C_2  and  O_4
REMARK    4  A    between atoms: O_4  and  C_5
REMARK    5  A    between atoms: C_5  and  C_7
REMARK    6  A    between atoms: C_7  and  C_8
REMARK    7  A    between atoms: C_8  and  C_9
REMARK    8  A    between atoms: C_9  and  C_10
REMARK    9  A    between atoms: C_11  and  C_12
REMARK   10  A    between atoms: C_12  and  C_13
REMARK   11  A    between atoms: C_14  and  O_15
REMARK   12  A    between atoms: C_17  and  O_18
REMARK   13  A    between atoms: C_19  and  C_20
REMARK   14  A    between atoms: C_20  and  C_21
REMARK   15  A    between atoms: C_21  and  C_22
REMARK   16  A    between atoms: C_22  and  O_23
REMARK   17  A    between atoms: C_22  and  C_24
REMARK   18  A    between atoms: C_24  and  C_25
REMARK   19  A    between atoms: C_25  and  C_26
REMARK                            x       y       z     vdW  Elec       q    Type
REMARK                         _______ _______ _______ _____ _____    ______ ____
ROOT
ATOM      1  C   UNL     1       9.278   4.055  -6.984  0.00  0.00    +0.000 C 
ATOM      2  C   UNL     1       8.653   4.947  -8.070  0.00  0.00    +0.000 C 
ATOM      3  C   UNL     1       9.443   4.695  -9.361  0.00  0.00    +0.000 C 
ATOM      4  C   UNL     1      10.473   3.611  -9.039  0.00  0.00    +0.000 C 
ATOM      5  C   UNL     1       9.941   2.913  -7.786  0.00  0.00    +0.000 C 
ENDROOT
BRANCH   2   6
ATOM      6  O   UNL     1       8.623   6.325  -7.744  0.00  0.00    +0.000 OA
ATOM      7  H   UNL     1       9.532   6.664  -7.696  0.00  0.00    +0.000 HD
ENDBRANCH   2   6
BRANCH   4   8
ATOM      8  O   UNL     1      11.758   4.176  -8.805  0.00  0.00    +0.000 OA
ATOM      9  H   UNL     1      11.708   4.846  -8.110  0.00  0.00    +0.000 HD
ENDBRANCH   4   8
BRANCH   1  10
ATOM     10  C   UNL     1      10.267   4.773  -6.071  0.00  0.00    +0.000 C 
BRANCH  10  12
ATOM     11  C   UNL     1      10.291   6.179  -4.034  0.00  0.00    +0.000 C 
ATOM     12  C   UNL     1       9.600   5.415  -4.890  0.00  0.00    +0.000 C 
BRANCH  11  13
ATOM     13  C   UNL     1      11.760   6.436  -4.218  0.00  0.00    +0.000 C 
BRANCH  13  14
ATOM     14  C   UNL     1      12.318   7.297  -3.106  0.00  0.00    +0.000 C 
BRANCH  14  15
ATOM     15  C   UNL     1      13.818   7.559  -3.284  0.00  0.00    +0.000 C 
BRANCH  15  16
ATOM     16  C   UNL     1      14.304   8.389  -2.124  0.00  0.00    +0.000 C 
ATOM     17  O   UNL     1      13.590   8.695  -1.169  0.00  0.00    +0.000 OA
BRANCH  16  18
ATOM     18  O   UNL     1      15.612   8.749  -2.257  0.00  0.00    +0.000 OA
BRANCH  18  20
ATOM     19  C   UNL     1      17.640   9.757  -1.382  0.00  0.00    +0.000 C 
ATOM     20  C   UNL     1      16.138   9.553  -1.174  0.00  0.00    +0.000 C 
ATOM     21  C   UNL     1      15.466  10.926  -1.132  0.00  0.00    +0.000 C 
ENDBRANCH  18  20
ENDBRANCH  16  18
ENDBRANCH  15  16
ENDBRANCH  14  15
ENDBRANCH  13  14
ENDBRANCH  11  13
ENDBRANCH  10  12
ENDBRANCH   1  10
BRANCH   5  22
ATOM     22  C   UNL     1       8.920   1.835  -8.171  0.00  0.00    +0.000 C 
BRANCH  22  23
ATOM     23  C   UNL     1       8.402   1.097  -6.940  0.00  0.00    +0.000 C 
BRANCH  23  24
ATOM     24  C   UNL     1       7.386   0.039  -7.330  0.00  0.00    +0.000 C 
BRANCH  24  25
ATOM     25  O   UNL     1       7.988  -0.910  -8.201  0.00  0.00    +0.000 OA
ATOM     26  H   UNL     1       8.724  -1.326  -7.721  0.00  0.00    +0.000 HD
ENDBRANCH  24  25
BRANCH  24  27
ATOM     27  C   UNL     1       6.876  -0.648  -6.074  0.00  0.00    +0.000 C 
BRANCH  27  28
ATOM     28  C   UNL     1       5.849  -1.707  -6.439  0.00  0.00    +0.000 C 
BRANCH  28  29
ATOM     29  C   UNL     1       5.288  -2.373  -5.217  0.00  0.00    +0.000 A 
ATOM     30  C   UNL     1       5.416  -3.752  -5.037  0.00  0.00    +0.000 A 
ATOM     31  C   UNL     1       4.735  -4.378  -3.996  0.00  0.00    +0.000 A 
ATOM     32  C   UNL     1       4.009  -3.619  -3.078  0.00  0.00    +0.000 A 
ATOM     33  C   UNL     1       3.933  -2.236  -3.216  0.00  0.00    +0.000 A 
ATOM     34  C   UNL     1       4.561  -1.616  -4.289  0.00  0.00    +0.000 A 
ENDBRANCH  28  29
ENDBRANCH  27  28
ENDBRANCH  24  27
ENDBRANCH  23  24
ENDBRANCH  22  23
ENDBRANCH   5  22
TORSDOF 17
