REMARK  Name = Latanoprostene bunod
REMARK  22 active torsions:
REMARK  status: ('A' for Active; 'I' for Inactive)
REMARK    1  A    between atoms: O_1  and  C_2
REMARK    2  A    between atoms: C_2  and  C_3
REMARK    3  A    between atoms: C_2  and  C_29
REMARK    4  A    between atoms: C_3  and  C_4
REMARK    5  A    between atoms: C_4  and  C_5
REMARK    6  A    between atoms: C_6  and  O_7
REMARK    7  A    between atoms: C_9  and  O_10
REMARK    8  A    between atoms: C_11  and  C_12
REMARK    9  A    between atoms: C_12  and  C_13
REMARK   10  A    between atoms: C_14  and  C_15
REMARK   11  A    between atoms: C_15  and  C_16
REMARK   12  A    between atoms: C_16  and  C_17
REMARK   13  A    between atoms: C_17  and  C_18
REMARK   14  A    between atoms: C_18  and  O_20
REMARK   15  A    between atoms: O_20  and  C_21
REMARK   16  A    between atoms: C_21  and  C_22
REMARK   17  A    between atoms: C_22  and  C_23
REMARK   18  A    between atoms: C_23  and  C_24
REMARK   19  A    between atoms: C_24  and  O_25
REMARK   20  A    between atoms: O_25  and  N_26
REMARK   21  A    between atoms: C_29  and  C_30
REMARK   22  A    between atoms: C_30  and  C_31
REMARK                            x       y       z     vdW  Elec       q    Type
REMARK                         _______ _______ _______ _____ _____    ______ ____
ROOT
ATOM      1  C   UNL     1      -1.244   0.354  -1.373  0.00  0.00    +0.000 C 
ATOM      2  C   UNL     1      -1.866   1.679  -0.915  0.00  0.00    +0.000 C 
ATOM      3  C   UNL     1      -3.108   1.323  -0.081  0.00  0.00    +0.000 C 
ATOM      4  C   UNL     1      -3.213  -0.204  -0.063  0.00  0.00    +0.000 C 
ATOM      5  C   UNL     1      -1.795  -0.701  -0.383  0.00  0.00    +0.000 C 
ENDROOT
BRANCH   2   6
ATOM      6  O   UNL     1      -0.950   2.448  -0.142  0.00  0.00    +0.000 OA
ATOM      7  H   UNL     1      -0.623   1.922   0.604  0.00  0.00    +0.000 HD
ENDBRANCH   2   6
BRANCH   4   8
ATOM      8  O   UNL     1      -3.766  -0.715   1.137  0.00  0.00    +0.000 OA
ATOM      9  H   UNL     1      -3.250  -0.399   1.894  0.00  0.00    +0.000 HD
ENDBRANCH   4   8
BRANCH   5  10
ATOM     10  C   UNL     1      -0.953  -0.779   0.890  0.00  0.00    +0.000 C 
BRANCH  10  11
ATOM     11  C   UNL     1       0.458  -1.222   0.658  0.00  0.00    +0.000 C 
ATOM     12  C   UNL     1       1.348  -1.261   1.658  0.00  0.00    +0.000 C 
BRANCH  12  13
ATOM     13  C   UNL     1       0.985  -0.873   3.065  0.00  0.00    +0.000 C 
BRANCH  13  14
ATOM     14  C   UNL     1       2.159  -1.042   4.012  0.00  0.00    +0.000 C 
BRANCH  14  15
ATOM     15  C   UNL     1       1.802  -0.650   5.449  0.00  0.00    +0.000 C 
BRANCH  15  16
ATOM     16  C   UNL     1       3.009  -0.839   6.344  0.00  0.00    +0.000 C 
ATOM     17  O   UNL     1       4.097  -1.244   5.953  0.00  0.00    +0.000 OA
BRANCH  16  18
ATOM     18  O   UNL     1       2.738  -0.501   7.640  0.00  0.00    +0.000 OA
BRANCH  18  19
ATOM     19  C   UNL     1       3.869  -0.670   8.519  0.00  0.00    +0.000 C 
BRANCH  19  20
ATOM     20  C   UNL     1       3.488  -0.273   9.947  0.00  0.00    +0.000 C 
BRANCH  20  21
ATOM     21  C   UNL     1       4.659  -0.435  10.920  0.00  0.00    +0.000 C 
BRANCH  21  22
ATOM     22  C   UNL     1       4.285  -0.039  12.352  0.00  0.00    +0.000 C 
BRANCH  22  23
ATOM     23  O   UNL     1       5.438  -0.226  13.172  0.00  0.00    +0.000 OA
BRANCH  23  24
ATOM     24  N   UNL     1       5.217   0.109  14.530  0.00  0.00    +0.000 N 
ATOM     25  O   UNL     1       4.086   0.510  14.834  0.00  0.00    +0.000 OA
ATOM     26  O   UNL     1       6.207  -0.053  15.232  0.00  0.00    +0.000 OA
ENDBRANCH  23  24
ENDBRANCH  22  23
ENDBRANCH  21  22
ENDBRANCH  20  21
ENDBRANCH  19  20
ENDBRANCH  18  19
ENDBRANCH  16  18
ENDBRANCH  15  16
ENDBRANCH  14  15
ENDBRANCH  13  14
ENDBRANCH  12  13
ENDBRANCH  10  11
ENDBRANCH   5  10
BRANCH   1  27
ATOM     27  C   UNL     1      -1.590   0.038  -2.832  0.00  0.00    +0.000 C 
BRANCH  27  28
ATOM     28  C   UNL     1      -3.076   0.053  -3.169  0.00  0.00    +0.000 C 
BRANCH  28  29
ATOM     29  C   UNL     1      -3.386  -0.223  -4.630  0.00  0.00    +0.000 C 
BRANCH  29  30
ATOM     30  O   UNL     1      -2.200  -0.632  -5.295  0.00  0.00    +0.000 OA
ATOM     31  H   UNL     1      -2.386  -0.737  -6.240  0.00  0.00    +0.000 HD
ENDBRANCH  29  30
BRANCH  29  32
ATOM     32  C   UNL     1      -4.436  -1.325  -4.704  0.00  0.00    +0.000 C 
BRANCH  32  33
ATOM     33  C   UNL     1      -4.781  -1.648  -6.152  0.00  0.00    +0.000 C 
BRANCH  33  34
ATOM     34  C   UNL     1      -5.776  -2.766  -6.164  0.00  0.00    +0.000 A 
ATOM     35  C   UNL     1      -7.141  -2.498  -6.282  0.00  0.00    +0.000 A 
ATOM     36  C   UNL     1      -8.061  -3.504  -6.010  0.00  0.00    +0.000 A 
ATOM     37  C   UNL     1      -7.620  -4.795  -5.714  0.00  0.00    +0.000 A 
ATOM     38  C   UNL     1      -6.258  -5.080  -5.660  0.00  0.00    +0.000 A 
ATOM     39  C   UNL     1      -5.336  -4.067  -5.884  0.00  0.00    +0.000 A 
ENDBRANCH  33  34
ENDBRANCH  32  33
ENDBRANCH  29  32
ENDBRANCH  28  29
ENDBRANCH  27  28
ENDBRANCH   1  27
TORSDOF 22
