REMARK  Name = Latamoxef
REMARK  14 active torsions:
REMARK  status: ('A' for Active; 'I' for Inactive)
REMARK    1  A    between atoms: C_5  and  C_6
REMARK    2  A    between atoms: C_6  and  S_7
REMARK    3  A    between atoms: S_7  and  C_8
REMARK    4  A    between atoms: N_12  and  C_13
REMARK    5  A    between atoms: C_14  and  C_35
REMARK    6  A    between atoms: C_18  and  N_19
REMARK    7  A    between atoms: C_18  and  O_33
REMARK    8  A    between atoms: C_20  and  C_22
REMARK    9  A    between atoms: C_22  and  C_23
REMARK   10  A    between atoms: C_22  and  C_26
REMARK   11  A    between atoms: C_23  and  O_24
REMARK   12  A    between atoms: C_29  and  O_30
REMARK   13  A    between atoms: O_33  and  C_34
REMARK   14  A    between atoms: C_35  and  O_36
REMARK                            x       y       z     vdW  Elec       q    Type
REMARK                         _______ _______ _______ _____ _____    ______ ____
ROOT
ATOM      1  C   UNL     1       2.110   0.017   0.108  0.00  0.00    +0.000 C 
ATOM      2  O   UNL     1       2.413   0.849   1.221  0.00  0.00    +0.000 OA
ATOM      3  C   UNL     1       2.234   2.218   0.919  0.00  0.00    +0.000 C 
ATOM      4  C   UNL     1       2.865   2.639  -0.400  0.00  0.00    +0.000 C 
ATOM      5  C   UNL     1       3.166   1.691  -1.344  0.00  0.00    +0.000 C 
ATOM      6  N   UNL     1       2.831   0.370  -1.089  0.00  0.00    +0.000 N 
ATOM      7  C   UNL     1       3.295  -0.871  -1.367  0.00  0.00    +0.000 C 
ATOM      8  O   UNL     1       4.034  -1.170  -2.299  0.00  0.00    +0.000 OA
ATOM      9  C   UNL     1       2.743  -1.430   0.092  0.00  0.00    +0.000 C 
ENDROOT
BRANCH   9  10
ATOM     10  N   UNL     1       3.803  -1.559   1.152  0.00  0.00    +0.000 N 
ATOM     11  C   UNL     1       4.730  -2.543   0.983  0.00  0.00    +0.000 C 
ATOM     12  O   UNL     1       4.829  -3.028  -0.145  0.00  0.00    +0.000 OA
ATOM     13  H   UNL     1       3.601  -1.194   2.081  0.00  0.00    +0.000 HD
BRANCH  11  14
ATOM     14  C   UNL     1       5.595  -2.963   2.183  0.00  0.00    +0.000 C 
BRANCH  14  15
ATOM     15  C   UNL     1       6.655  -4.003   1.813  0.00  0.00    +0.000 A 
ATOM     16  C   UNL     1       6.418  -4.974   0.822  0.00  0.00    +0.000 A 
ATOM     17  C   UNL     1       7.385  -5.899   0.457  0.00  0.00    +0.000 A 
ATOM     18  C   UNL     1       8.579  -5.924   1.154  0.00  0.00    +0.000 A 
ATOM     19  C   UNL     1       8.816  -5.032   2.195  0.00  0.00    +0.000 A 
ATOM     20  C   UNL     1       7.866  -4.060   2.519  0.00  0.00    +0.000 A 
BRANCH  18  21
ATOM     21  O   UNL     1       9.547  -6.832   0.854  0.00  0.00    +0.000 OA
ATOM     22  H   UNL     1       9.258  -7.345   0.080  0.00  0.00    +0.000 HD
ENDBRANCH  18  21
ENDBRANCH  14  15
BRANCH  14  23
ATOM     23  C   UNL     1       4.749  -3.367   3.384  0.00  0.00    +0.000 C 
ATOM     24  O   UNL     1       3.892  -2.624   3.853  0.00  0.00    +0.000 OA
BRANCH  23  25
ATOM     25  O   UNL     1       4.996  -4.569   3.953  0.00  0.00    +0.000 OA
ATOM     26  H   UNL     1       5.690  -5.123   3.541  0.00  0.00    +0.000 HD
ENDBRANCH  23  25
ENDBRANCH  14  23
ENDBRANCH  11  14
ENDBRANCH   9  10
BRANCH   9  27
ATOM     27  O   UNL     1       1.687  -2.409   0.297  0.00  0.00    +0.000 OA
ATOM     28  C   UNL     1       1.385  -3.553  -0.470  0.00  0.00    +0.000 C 
ENDBRANCH   9  27
BRANCH   5  29
ATOM     29  C   UNL     1       3.807   2.130  -2.644  0.00  0.00    +0.000 C 
ATOM     30  O   UNL     1       4.022   3.305  -2.914  0.00  0.00    +0.000 OA
BRANCH  29  31
ATOM     31  O   UNL     1       4.066   1.175  -3.555  0.00  0.00    +0.000 OA
ATOM     32  H   UNL     1       4.018   0.242  -3.253  0.00  0.00    +0.000 HD
ENDBRANCH  29  31
ENDBRANCH   5  29
BRANCH   4  33
ATOM     33  C   UNL     1       3.098   4.171  -0.547  0.00  0.00    +0.000 C 
BRANCH  33  34
ATOM     34  S   UNL     1       2.494   5.120   0.902  0.00  0.00    +0.000 S 
BRANCH  34  35
ATOM     35  C   UNL     1       2.799   6.774   0.582  0.00  0.00    +0.000 A 
ATOM     36  N   UNL     1       3.715   7.317  -0.181  0.00  0.00    +0.000 NA
ATOM     37  N   UNL     1       3.558   8.681  -0.034  0.00  0.00    +0.000 NA
ATOM     38  N   UNL     1       2.572   8.964   0.809  0.00  0.00    +0.000 NA
ATOM     39  N   UNL     1       2.103   7.771   1.208  0.00  0.00    +0.000 N 
ATOM     40  C   UNL     1       1.015   7.680   2.144  0.00  0.00    +0.000 C 
ENDBRANCH  34  35
ENDBRANCH  33  34
ENDBRANCH   4  33
TORSDOF 12
