REMARK  Name = Lauric acid
REMARK  12 active torsions:
REMARK  status: ('A' for Active; 'I' for Inactive)
REMARK    1  A    between atoms: C_1  and  C_2
REMARK    2  A    between atoms: C_2  and  C_3
REMARK    3  A    between atoms: C_3  and  C_4
REMARK    4  A    between atoms: C_4  and  C_5
REMARK    5  A    between atoms: C_5  and  C_6
REMARK    6  A    between atoms: C_6  and  C_7
REMARK    7  A    between atoms: C_7  and  C_8
REMARK    8  A    between atoms: C_8  and  C_9
REMARK    9  A    between atoms: C_9  and  C_10
REMARK   10  A    between atoms: C_10  and  C_11
REMARK   11  A    between atoms: C_11  and  C_12
REMARK   12  A    between atoms: C_12  and  O_13
REMARK                            x       y       z     vdW  Elec       q    Type
REMARK                         _______ _______ _______ _____ _____    ______ ____
ROOT
ATOM      1  C   UNL     1       8.533   4.311   0.324  0.00  0.00    +0.000 C 
ENDROOT
BRANCH   1   2
ATOM      2  C   UNL     1       7.017   4.300   0.323  0.00  0.00    +0.000 C 
BRANCH   2   3
ATOM      3  C   UNL     1       6.508   2.876   0.190  0.00  0.00    +0.000 C 
BRANCH   3   4
ATOM      4  C   UNL     1       4.990   2.868   0.190  0.00  0.00    +0.000 C 
BRANCH   4   5
ATOM      5  C   UNL     1       4.477   1.444   0.057  0.00  0.00    +0.000 C 
BRANCH   5   6
ATOM      6  C   UNL     1       2.958   1.434   0.056  0.00  0.00    +0.000 C 
BRANCH   6   8
ATOM      7  C   UNL     1       0.919   0.004  -0.077  0.00  0.00    +0.000 C 
ATOM      8  C   UNL     1       2.435   0.011  -0.077  0.00  0.00    +0.000 C 
ENDBRANCH   6   8
ENDBRANCH   5   6
ENDBRANCH   4   5
ENDBRANCH   3   4
ENDBRANCH   2   3
ENDBRANCH   1   2
BRANCH   1   9
ATOM      9  C   UNL     1       9.047   5.736   0.457  0.00  0.00    +0.000 C 
BRANCH   9  10
ATOM     10  C   UNL     1      10.566   5.721   0.456  0.00  0.00    +0.000 C 
BRANCH  10  11
ATOM     11  C   UNL     1      11.142   7.119   0.586  0.00  0.00    +0.000 C 
BRANCH  11  12
ATOM     12  C   UNL     1      12.652   7.193   0.593  0.00  0.00    +0.000 C 
ATOM     13  O   UNL     1      13.244   8.262   0.693  0.00  0.00    +0.000 OA
BRANCH  12  14
ATOM     14  O   UNL     1      13.329   6.034   0.485  0.00  0.00    +0.000 OA
ATOM     15  H   UNL     1      12.813   5.213   0.408  0.00  0.00    +0.000 HD
ENDBRANCH  12  14
ENDBRANCH  11  12
ENDBRANCH  10  11
ENDBRANCH   9  10
ENDBRANCH   1   9
TORSDOF 11
