REMARK  Name = Lefamulin
REMARK  13 active torsions:
REMARK  status: ('A' for Active; 'I' for Inactive)
REMARK    1  A    between atoms: C_10  and  C_11
REMARK    2  A    between atoms: C_12  and  C_13
REMARK    3  A    between atoms: C_14  and  O_24
REMARK    4  A    between atoms: C_16  and  C_17
REMARK    5  A    between atoms: C_16  and  C_18
REMARK    6  A    between atoms: C_20  and  O_21
REMARK    7  A    between atoms: C_22  and  C_23
REMARK    8  A    between atoms: O_24  and  C_25
REMARK    9  A    between atoms: C_25  and  C_27
REMARK   10  A    between atoms: C_27  and  S_28
REMARK   11  A    between atoms: S_28  and  C_29
REMARK   12  A    between atoms: C_32  and  N_33
REMARK   13  A    between atoms: C_35  and  O_36
REMARK                            x       y       z     vdW  Elec       q    Type
REMARK                         _______ _______ _______ _____ _____    ______ ____
ROOT
ATOM      1  C   UNL     1       2.547  -0.332  -0.188  0.00  0.00    +0.000 C 
ATOM      2  C   UNL     1       4.098   0.982   0.201  0.00  0.00    +0.000 C 
ATOM      3  O   UNL     1       4.671   1.762  -0.584  0.00  0.00    +0.000 OA
ATOM      4  C   UNL     1       3.693   1.737   1.862  0.00  0.00    +0.000 C 
ATOM      5  C   UNL     1       2.982   0.526   2.533  0.00  0.00    +0.000 C 
ATOM      6  C   UNL     1       2.005  -0.782   1.236  0.00  0.00    +0.000 C 
ATOM      7  C   UNL     1       2.797  -1.982   0.766  0.00  0.00    +0.000 C 
ATOM      8  C   UNL     1       2.733  -3.071  -0.116  0.00  0.00    +0.000 C 
ATOM      9  C   UNL     1       2.115  -2.385  -1.250  0.00  0.00    +0.000 C 
ATOM     10  C   UNL     1       0.592  -2.399  -0.972  0.00  0.00    +0.000 C 
ATOM     11  C   UNL     1       2.724  -1.006  -1.462  0.00  0.00    +0.000 C 
ATOM     12  C   UNL     1       4.217  -0.852  -1.469  0.00  0.00    +0.000 C 
ATOM     13  C   UNL     1       2.012  -0.255  -2.595  0.00  0.00    +0.000 C 
ATOM     14  C   UNL     1       2.276   1.222  -2.571  0.00  0.00    +0.000 C 
ATOM     15  C   UNL     1       1.443   1.674  -1.298  0.00  0.00    +0.000 C 
ATOM     16  C   UNL     1       0.033   1.973  -1.375  0.00  0.00    +0.000 C 
ATOM     17  C   UNL     1       2.374   1.509  -0.141  0.00  0.00    +0.000 C 
ATOM     18  C   UNL     1       3.040  -0.042   1.317  0.00  0.00    +0.000 C 
ATOM     19  C   UNL     1       2.512  -1.357   2.953  0.00  0.00    +0.000 C 
ENDROOT
BRANCH  15  20
ATOM     20  C   UNL     1       1.387   1.780   0.358  0.00  0.00    +0.000 C 
ATOM     21  C   UNL     1       0.597   0.944   1.088  0.00  0.00    +0.000 C 
ENDBRANCH  15  20
BRANCH  17  22
ATOM     22  O   UNL     1       1.976   3.470  -0.289  0.00  0.00    +0.000 OA
ATOM     23  H   UNL     1       1.417   3.702   0.516  0.00  0.00    +0.000 HD
ENDBRANCH  17  22
BRANCH  13  24
ATOM     24  O   UNL     1       2.462  -0.917  -3.735  0.00  0.00    +0.000 OA
BRANCH  24  25
ATOM     25  C   UNL     1       1.950  -0.408  -4.868  0.00  0.00    +0.000 C 
ATOM     26  O   UNL     1       1.107   0.469  -4.941  0.00  0.00    +0.000 OA
BRANCH  25  27
ATOM     27  C   UNL     1       2.488  -1.170  -6.010  0.00  0.00    +0.000 C 
BRANCH  27  28
ATOM     28  S   UNL     1       1.719  -0.474  -7.565  0.00  0.00    +0.000 S 
BRANCH  28  29
ATOM     29  C   UNL     1       2.379  -1.483  -8.965  0.00  0.00    +0.000 C 
ATOM     30  C   UNL     1       1.229  -2.235  -9.673  0.00  0.00    +0.000 C 
ATOM     31  C   UNL     1       0.643  -3.324  -8.774  0.00  0.00    +0.000 C 
ATOM     32  C   UNL     1       1.726  -4.314  -8.324  0.00  0.00    +0.000 C 
ATOM     33  C   UNL     1       2.863  -3.567  -7.699  0.00  0.00    +0.000 C 
ATOM     34  C   UNL     1       3.470  -2.455  -8.519  0.00  0.00    +0.000 C 
BRANCH  32  35
ATOM     35  N   UNL     1       2.259  -5.101  -9.412  0.00  0.00    +0.000 NA
ATOM     36  H   UNL     1       2.526  -4.516 -10.180  0.00  0.00    +0.000 HD
ATOM     37  H   UNL     1       1.509  -5.613  -9.850  0.00  0.00    +0.000 HD
ENDBRANCH  32  35
BRANCH  34  38
ATOM     38  O   UNL     1       4.184  -3.013  -9.605  0.00  0.00    +0.000 OA
ATOM     39  H   UNL     1       3.535  -3.388 -10.204  0.00  0.00    +0.000 HD
ENDBRANCH  34  38
ENDBRANCH  28  29
ENDBRANCH  27  28
ENDBRANCH  25  27
ENDBRANCH  24  25
ENDBRANCH  13  24
TORSDOF 9
