REMARK  Name = Leflunomide
REMARK  4 active torsions:
REMARK  status: ('A' for Active; 'I' for Inactive)
REMARK    1  A    between atoms: C_1  and  C_2
REMARK    2  A    between atoms: C_3  and  C_7
REMARK    3  A    between atoms: N_9  and  C_10
REMARK    4  A    between atoms: C_13  and  C_16
REMARK                            x       y       z     vdW  Elec       q    Type
REMARK                         _______ _______ _______ _____ _____    ______ ____
ROOT
ATOM      1  C   UNL     1       0.313  -2.714  -0.013  0.00  0.00    +0.000 C 
ATOM      2  O   UNL     1      -0.624  -3.519  -0.041  0.00  0.00    +0.000 OA
ATOM      3  N   UNL     1       1.641  -3.104   0.057  0.00  0.00    +0.000 N 
ATOM      4  H   UNL     1       2.357  -2.440   0.283  0.00  0.00    +0.000 HD
ENDROOT
BRANCH   1   7
ATOM      5  C   UNL     1       2.255   0.133  -0.005  0.00  0.00    +0.000 C 
ATOM      6  C   UNL     1       0.814  -0.168  -0.002  0.00  0.00    +0.000 A 
ATOM      7  C   UNL     1       0.014  -1.294  -0.000  0.00  0.00    +0.000 A 
ATOM      8  C   UNL     1      -1.299  -0.749   0.004  0.00  0.00    +0.000 A 
ATOM      9  N   UNL     1      -1.306   0.583   0.004  0.00  0.00    +0.000 NA
ATOM     10  O   UNL     1       0.024   0.947   0.000  0.00  0.00    +0.000 OA
ENDBRANCH   1   7
BRANCH   3  11
ATOM     11  C   UNL     1       2.072  -4.440  -0.041  0.00  0.00    +0.000 A 
ATOM     12  C   UNL     1       3.181  -4.873   0.694  0.00  0.00    +0.000 A 
ATOM     13  C   UNL     1       3.634  -6.190   0.559  0.00  0.00    +0.000 A 
ATOM     14  C   UNL     1       2.959  -7.090  -0.282  0.00  0.00    +0.000 A 
ATOM     15  C   UNL     1       1.882  -6.628  -1.047  0.00  0.00    +0.000 A 
ATOM     16  C   UNL     1       1.441  -5.316  -0.921  0.00  0.00    +0.000 A 
BRANCH  14  17
ATOM     17  C   UNL     1       3.339  -8.548  -0.311  0.00  0.00    +0.000 C 
ATOM     18  F   UNL     1       4.624  -8.753  -0.708  0.00  0.00    +0.000 F 
ATOM     19  F   UNL     1       3.226  -9.128   0.917  0.00  0.00    +0.000 F 
ATOM     20  F   UNL     1       2.563  -9.295  -1.146  0.00  0.00    +0.000 F 
ENDBRANCH  14  17
ENDBRANCH   3  11
TORSDOF 3
