REMARK  Name = Lemborexant
REMARK  7 active torsions:
REMARK  status: ('A' for Active; 'I' for Inactive)
REMARK    1  A    between atoms: C_1  and  C_2
REMARK    2  A    between atoms: C_5  and  O_6
REMARK    3  A    between atoms: O_6  and  C_7
REMARK    4  A    between atoms: C_7  and  C_8
REMARK    5  A    between atoms: C_8  and  C_21
REMARK    6  A    between atoms: C_10  and  C_11
REMARK    7  A    between atoms: C_28  and  C_29
REMARK                            x       y       z     vdW  Elec       q    Type
REMARK                         _______ _______ _______ _____ _____    ______ ____
ROOT
ATOM      1  C   UNL     1       8.947  -0.526  -0.011  0.00  0.00    +0.000 C 
ATOM      2  C   UNL     1       9.798  -1.028  -1.165  0.00  0.00    +0.000 C 
ATOM      3  C   UNL     1       9.741   0.448  -0.914  0.00  0.00    +0.000 C 
ENDROOT
BRANCH   3   4
ATOM      4  C   UNL     1       9.090   1.533  -1.731  0.00  0.00    +0.000 C 
ATOM      5  O   UNL     1       8.639   2.495  -1.103  0.00  0.00    +0.000 OA
ATOM      6  N   UNL     1       9.096   1.445  -3.119  0.00  0.00    +0.000 N 
ATOM      7  C   UNL     1       8.698   2.551  -3.917  0.00  0.00    +0.000 A 
ATOM      8  N   UNL     1       9.257   3.764  -3.695  0.00  0.00    +0.000 NA
ATOM      9  C   UNL     1       8.800   4.821  -4.421  0.00  0.00    +0.000 A 
ATOM     10  C   UNL     1       7.723   4.745  -5.279  0.00  0.00    +0.000 A 
ATOM     11  F   UNL     1       7.275   5.826  -5.932  0.00  0.00    +0.000 F 
ATOM     12  C   UNL     1       7.141   3.508  -5.484  0.00  0.00    +0.000 A 
ATOM     13  C   UNL     1       7.727   2.374  -4.902  0.00  0.00    +0.000 A 
ATOM     14  H   UNL     1       9.139   0.538  -3.555  0.00  0.00    +0.000 HD
ENDBRANCH   3   4
BRANCH   1  15
ATOM     15  C   UNL     1       9.283  -0.661   1.488  0.00  0.00    +0.000 A 
ATOM     16  C   UNL     1       9.810  -1.819   2.091  0.00  0.00    +0.000 A 
ATOM     17  C   UNL     1       9.955  -1.915   3.487  0.00  0.00    +0.000 A 
ATOM     18  C   UNL     1       9.328  -0.992   4.319  0.00  0.00    +0.000 A 
ATOM     19  C   UNL     1       8.644   0.064   3.746  0.00  0.00    +0.000 A 
ATOM     20  F   UNL     1       7.899   0.871   4.513  0.00  0.00    +0.000 F 
ATOM     21  C   UNL     1       8.692   0.274   2.371  0.00  0.00    +0.000 A 
ENDBRANCH   1  15
BRANCH   1  22
ATOM     22  C   UNL     1       7.494  -0.839  -0.165  0.00  0.00    +0.000 C 
BRANCH  22  23
ATOM     23  O   UNL     1       6.688   0.308  -0.118  0.00  0.00    +0.000 OA
BRANCH  23  28
ATOM     24  C   UNL     1       1.144   0.038   0.034  0.00  0.00    +0.000 C 
ATOM     25  C   UNL     1       2.640   0.051   0.040  0.00  0.00    +0.000 A 
ATOM     26  N   UNL     1       3.247   1.244   0.040  0.00  0.00    +0.000 NA
ATOM     27  C   UNL     1       4.591   1.211   0.016  0.00  0.00    +0.000 A 
ATOM     28  C   UNL     1       5.353   0.054  -0.022  0.00  0.00    +0.000 A 
ATOM     29  C   UNL     1       4.640  -1.143   0.015  0.00  0.00    +0.000 A 
ATOM     30  C   UNL     1       5.185  -2.549   0.023  0.00  0.00    +0.000 C 
ATOM     31  N   UNL     1       3.280  -1.137   0.037  0.00  0.00    +0.000 NA
ENDBRANCH  23  28
ENDBRANCH  22  23
ENDBRANCH   1  22
TORSDOF 5
