REMARK  Name = Lenalidomide
REMARK  2 active torsions:
REMARK  status: ('A' for Active; 'I' for Inactive)
REMARK    1  A    between atoms: N_1  and  C_2
REMARK    2  A    between atoms: N_9  and  C_10
REMARK                            x       y       z     vdW  Elec       q    Type
REMARK                         _______ _______ _______ _____ _____    ______ ____
ROOT
ATOM      1  C   UNL     1       1.791  -0.438   0.008  0.00  0.00    +0.000 A 
ATOM      2  C   UNL     1       2.273   0.885  -0.025  0.00  0.00    +0.000 A 
ATOM      3  C   UNL     1       1.412   2.003  -0.027  0.00  0.00    +0.000 A 
ATOM      4  C   UNL     1       0.043   1.817   0.012  0.00  0.00    +0.000 A 
ATOM      5  C   UNL     1      -0.396   0.510   0.068  0.00  0.00    +0.000 A 
ATOM      6  C   UNL     1       0.425  -0.608   0.026  0.00  0.00    +0.000 A 
ATOM      7  C   UNL     1      -0.413  -1.842   0.058  0.00  0.00    +0.000 C 
ATOM      8  N   UNL     1      -1.763  -1.322   0.278  0.00  0.00    +0.000 N 
ATOM      9  C   UNL     1      -1.756   0.063   0.259  0.00  0.00    +0.000 C 
ATOM     10  O   UNL     1      -2.659   0.874   0.370  0.00  0.00    +0.000 OA
ENDROOT
BRANCH   8  11
ATOM     11  C   UNL     1      -2.941  -2.164   0.028  0.00  0.00    +0.000 C 
ATOM     12  C   UNL     1      -3.633  -1.733  -1.265  0.00  0.00    +0.000 C 
ATOM     13  C   UNL     1      -4.678  -0.655  -1.019  0.00  0.00    +0.000 C 
ATOM     14  C   UNL     1      -5.692  -1.082  -0.002  0.00  0.00    +0.000 C 
ATOM     15  O   UNL     1      -6.845  -0.663  -0.009  0.00  0.00    +0.000 OA
ATOM     16  N   UNL     1      -5.229  -1.898   0.999  0.00  0.00    +0.000 N 
ATOM     17  C   UNL     1      -3.960  -2.407   1.165  0.00  0.00    +0.000 C 
ATOM     18  O   UNL     1      -3.687  -3.063   2.171  0.00  0.00    +0.000 OA
ATOM     19  H   UNL     1      -5.899  -2.116   1.725  0.00  0.00    +0.000 HD
ENDBRANCH   8  11
BRANCH   1  20
ATOM     20  N   UNL     1       2.653  -1.512  -0.082  0.00  0.00    +0.000 N 
ATOM     21  H   UNL     1       3.644  -1.362   0.064  0.00  0.00    +0.000 HD
ATOM     22  H   UNL     1       2.308  -2.453   0.054  0.00  0.00    +0.000 HD
ENDBRANCH   1  20
TORSDOF 2
