REMARK  Name = Lenvatinib
REMARK  7 active torsions:
REMARK  status: ('A' for Active; 'I' for Inactive)
REMARK    1  A    between atoms: C_1  and  O_2
REMARK    2  A    between atoms: O_2  and  C_3
REMARK    3  A    between atoms: C_4  and  C_28
REMARK    4  A    between atoms: C_7  and  O_8
REMARK    5  A    between atoms: O_8  and  C_9
REMARK    6  A    between atoms: C_12  and  N_13
REMARK    7  A    between atoms: N_16  and  C_17
REMARK                            x       y       z     vdW  Elec       q    Type
REMARK                         _______ _______ _______ _____ _____    ______ ____
ROOT
ATOM      1  C   UNL     1       2.957   0.309  -0.995  0.00  0.00    +0.000 A 
ATOM      2  C   UNL     1       2.524   1.448  -1.640  0.00  0.00    +0.000 A 
ATOM      3  C   UNL     1       3.084   1.682  -2.890  0.00  0.00    +0.000 A 
ATOM      4  C   UNL     1       4.226   1.048  -3.430  0.00  0.00    +0.000 A 
ATOM      5  C   UNL     1       4.911   1.453  -4.616  0.00  0.00    +0.000 A 
ATOM      6  C   UNL     1       5.975   0.677  -5.084  0.00  0.00    +0.000 A 
ATOM      7  C   UNL     1       6.351  -0.425  -4.343  0.00  0.00    +0.000 A 
ATOM      8  N   UNL     1       5.756  -0.789  -3.182  0.00  0.00    +0.000 NA
ATOM      9  C   UNL     1       4.712  -0.063  -2.724  0.00  0.00    +0.000 A 
ATOM     10  C   UNL     1       4.051  -0.417  -1.532  0.00  0.00    +0.000 A 
ENDROOT
BRANCH   2  11
ATOM     11  C   UNL     1       1.566   2.449  -1.045  0.00  0.00    +0.000 C 
ATOM     12  N   UNL     1       0.938   3.319  -1.881  0.00  0.00    +0.000 N 
ATOM     13  O   UNL     1       1.329   2.555   0.151  0.00  0.00    +0.000 OA
ATOM     14  H   UNL     1       1.137   3.404  -2.859  0.00  0.00    +0.000 HD
ATOM     15  H   UNL     1       0.315   4.002  -1.476  0.00  0.00    +0.000 HD
ENDBRANCH   2  11
BRANCH   1  17
ATOM     16  C   UNL     1       0.956  -0.299   0.088  0.00  0.00    +0.000 C 
ATOM     17  O   UNL     1       2.385  -0.171   0.151  0.00  0.00    +0.000 OA
ENDBRANCH   1  17
BRANCH   5  18
ATOM     18  O   UNL     1       4.681   2.579  -5.406  0.00  0.00    +0.000 OA
BRANCH  18  19
ATOM     19  C   UNL     1       3.741   3.522  -5.070  0.00  0.00    +0.000 A 
ATOM     20  C   UNL     1       3.806   4.336  -3.939  0.00  0.00    +0.000 A 
ATOM     21  C   UNL     1       2.679   5.114  -3.551  0.00  0.00    +0.000 A 
ATOM     22  C   UNL     1       1.475   5.148  -4.315  0.00  0.00    +0.000 A 
ATOM     23  C   UNL     1       1.490   4.358  -5.511  0.00  0.00    +0.000 A 
ATOM     24 CL   UNL     1       0.274   4.063  -6.715  0.00  0.00    +0.000 Cl
ATOM     25  C   UNL     1       2.609   3.575  -5.858  0.00  0.00    +0.000 A 
BRANCH  22  26
ATOM     26  N   UNL     1       0.362   5.904  -3.733  0.00  0.00    +0.000 N 
ATOM     27  C   UNL     1      -0.904   5.929  -4.248  0.00  0.00    +0.000 C 
ATOM     28  O   UNL     1      -1.284   5.121  -5.090  0.00  0.00    +0.000 OA
ATOM     29  N   UNL     1      -1.790   6.903  -3.868  0.00  0.00    +0.000 N 
ATOM     30  H   UNL     1       0.499   6.333  -2.822  0.00  0.00    +0.000 HD
ATOM     31  H   UNL     1      -1.774   7.273  -2.924  0.00  0.00    +0.000 HD
BRANCH  29  32
ATOM     32  C   UNL     1      -3.061   7.015  -4.607  0.00  0.00    +0.000 C 
ATOM     33  C   UNL     1      -3.169   8.012  -5.737  0.00  0.00    +0.000 C 
ATOM     34  C   UNL     1      -3.236   6.559  -6.062  0.00  0.00    +0.000 C 
ENDBRANCH  29  32
ENDBRANCH  22  26
ENDBRANCH  18  19
ENDBRANCH   5  18
TORSDOF 6
