REMARK  Name = Lercanidipine
REMARK  20 active torsions:
REMARK  status: ('A' for Active; 'I' for Inactive)
REMARK    1  A    between atoms: C_1  and  O_2
REMARK    2  A    between atoms: O_2  and  C_3
REMARK    3  A    between atoms: C_3  and  C_5
REMARK    4  A    between atoms: C_6  and  C_7
REMARK    5  A    between atoms: C_9  and  C_10
REMARK    6  A    between atoms: C_11  and  C_22
REMARK    7  A    between atoms: C_12  and  C_13
REMARK    8  A    between atoms: C_15  and  N_19
REMARK    9  A    between atoms: C_22  and  O_24
REMARK   10  A    between atoms: O_24  and  C_25
REMARK   11  A    between atoms: C_25  and  C_26
REMARK   12  A    between atoms: C_25  and  C_27
REMARK   13  A    between atoms: C_25  and  C_28
REMARK   14  A    between atoms: C_28  and  N_29
REMARK   15  A    between atoms: N_29  and  C_30
REMARK   16  A    between atoms: N_29  and  C_31
REMARK   17  A    between atoms: C_31  and  C_32
REMARK   18  A    between atoms: C_32  and  C_33
REMARK   19  A    between atoms: C_33  and  C_34
REMARK   20  A    between atoms: C_33  and  C_40
REMARK                            x       y       z     vdW  Elec       q    Type
REMARK                         _______ _______ _______ _____ _____    ______ ____
ROOT
ATOM      1  C   UNL     1       7.614   3.398  -0.901  0.00  0.00    +0.000 C 
ATOM      2  O   UNL     1       8.786   3.332  -1.236  0.00  0.00    +0.000 OA
ENDROOT
BRANCH   1   9
ATOM      3  C   UNL     1       4.558   0.930  -0.598  0.00  0.00    +0.000 C 
ATOM      4  C   UNL     1       5.235  -0.205  -0.887  0.00  0.00    +0.000 C 
ATOM      5  C   UNL     1       4.636  -1.543  -1.211  0.00  0.00    +0.000 C 
ATOM      6  N   UNL     1       6.618  -0.176  -0.946  0.00  0.00    +0.000 N 
ATOM      7  C   UNL     1       7.364   0.981  -1.067  0.00  0.00    +0.000 C 
ATOM      8  C   UNL     1       8.796   0.776  -1.519  0.00  0.00    +0.000 C 
ATOM      9  C   UNL     1       6.783   2.179  -0.788  0.00  0.00    +0.000 C 
ATOM     10  C   UNL     1       5.331   2.226  -0.295  0.00  0.00    +0.000 C 
ATOM     11  H   UNL     1       7.105  -1.057  -1.090  0.00  0.00    +0.000 HD
BRANCH  10  12
ATOM     12  C   UNL     1       5.339   2.463   1.220  0.00  0.00    +0.000 A 
ATOM     13  C   UNL     1       4.838   3.646   1.771  0.00  0.00    +0.000 A 
ATOM     14  C   UNL     1       5.052   3.906   3.133  0.00  0.00    +0.000 A 
ATOM     15  C   UNL     1       5.630   2.945   3.975  0.00  0.00    +0.000 A 
ATOM     16  C   UNL     1       6.086   1.749   3.436  0.00  0.00    +0.000 A 
ATOM     17  C   UNL     1       5.956   1.521   2.072  0.00  0.00    +0.000 A 
BRANCH  14  18
ATOM     18  N   UNL     1       4.800   5.253   3.659  0.00  0.00    +0.000 N 
ATOM     19  O   UNL     1       4.366   6.108   2.874  0.00  0.00    +0.000 OA
ATOM     20  O   UNL     1       5.083   5.469   4.846  0.00  0.00    +0.000 OA
ENDBRANCH  14  18
ENDBRANCH  10  12
BRANCH   3  21
ATOM     21  C   UNL     1       3.072   1.039  -0.599  0.00  0.00    +0.000 C 
ATOM     22  O   UNL     1       2.480   1.959  -1.117  0.00  0.00    +0.000 OA
BRANCH  21  24
ATOM     23  C   UNL     1       1.065  -0.029   0.032  0.00  0.00    +0.000 C 
ATOM     24  O   UNL     1       2.498   0.003   0.076  0.00  0.00    +0.000 OA
ENDBRANCH  21  24
ENDBRANCH   3  21
ENDBRANCH   1   9
BRANCH   1  25
ATOM     25  O   UNL     1       6.977   4.579  -0.640  0.00  0.00    +0.000 OA
BRANCH  25  26
ATOM     26  C   UNL     1       7.792   5.771  -0.919  0.00  0.00    +0.000 C 
ATOM     27  C   UNL     1       9.006   5.845   0.036  0.00  0.00    +0.000 C 
ATOM     28  C   UNL     1       8.174   5.732  -2.409  0.00  0.00    +0.000 C 
BRANCH  26  29
ATOM     29  C   UNL     1       6.946   7.050  -0.649  0.00  0.00    +0.000 C 
BRANCH  29  30
ATOM     30  N   UNL     1       7.650   8.347  -0.899  0.00  0.00    +0.000 NA
ATOM     31  C   UNL     1       8.087   8.617  -2.250  0.00  0.00    +0.000 C 
BRANCH  30  32
ATOM     32  C   UNL     1       6.767   9.434  -0.522  0.00  0.00    +0.000 C 
BRANCH  32  33
ATOM     33  C   UNL     1       7.499  10.770  -0.446  0.00  0.00    +0.000 C 
BRANCH  33  34
ATOM     34  C   UNL     1       6.666  11.984  -0.008  0.00  0.00    +0.000 C 
BRANCH  34  35
ATOM     35  C   UNL     1       6.252  11.909   1.473  0.00  0.00    +0.000 A 
ATOM     36  C   UNL     1       6.042  13.042   2.254  0.00  0.00    +0.000 A 
ATOM     37  C   UNL     1       5.856  12.943   3.637  0.00  0.00    +0.000 A 
ATOM     38  C   UNL     1       5.779  11.710   4.273  0.00  0.00    +0.000 A 
ATOM     39  C   UNL     1       5.892  10.574   3.524  0.00  0.00    +0.000 A 
ATOM     40  C   UNL     1       6.070  10.705   2.163  0.00  0.00    +0.000 A 
ENDBRANCH  34  35
BRANCH  34  41
ATOM     41  C   UNL     1       7.489  13.261  -0.331  0.00  0.00    +0.000 A 
ATOM     42  C   UNL     1       8.898  13.272  -0.392  0.00  0.00    +0.000 A 
ATOM     43  C   UNL     1       9.607  14.470  -0.391  0.00  0.00    +0.000 A 
ATOM     44  C   UNL     1       8.921  15.679  -0.407  0.00  0.00    +0.000 A 
ATOM     45  C   UNL     1       7.528  15.688  -0.425  0.00  0.00    +0.000 A 
ATOM     46  C   UNL     1       6.818  14.489  -0.427  0.00  0.00    +0.000 A 
ENDBRANCH  34  41
ENDBRANCH  33  34
ENDBRANCH  32  33
ENDBRANCH  30  32
ENDBRANCH  29  30
ENDBRANCH  26  29
ENDBRANCH  25  26
ENDBRANCH   1  25
TORSDOF 14
