REMARK  Name = Lesinurad
REMARK  6 active torsions:
REMARK  status: ('A' for Active; 'I' for Inactive)
REMARK    1  A    between atoms: O_1  and  C_2
REMARK    2  A    between atoms: C_2  and  C_4
REMARK    3  A    between atoms: C_4  and  S_5
REMARK    4  A    between atoms: S_5  and  C_6
REMARK    5  A    between atoms: N_11  and  C_12
REMARK    6  A    between atoms: C_15  and  C_16
REMARK                            x       y       z     vdW  Elec       q    Type
REMARK                         _______ _______ _______ _____ _____    ______ ____
ROOT
ATOM      1  C   UNL     1       7.202   0.349  -3.084  0.00  0.00    +0.000 A 
ATOM      2  C   UNL     1       6.278  -0.624  -3.477  0.00  0.00    +0.000 A 
ATOM      3  C   UNL     1       6.719  -1.894  -3.849  0.00  0.00    +0.000 A 
ATOM      4  C   UNL     1       8.086  -2.240  -3.830  0.00  0.00    +0.000 A 
ATOM      5  C   UNL     1       9.034  -1.207  -3.481  0.00  0.00    +0.000 A 
ATOM      6  C   UNL     1       8.602   0.089  -3.085  0.00  0.00    +0.000 A 
ATOM      7  C   UNL     1       9.597   1.029  -2.676  0.00  0.00    +0.000 A 
ATOM      8  C   UNL     1      10.963   0.752  -2.720  0.00  0.00    +0.000 A 
ATOM      9  C   UNL     1      11.381  -0.498  -3.116  0.00  0.00    +0.000 A 
ATOM     10  C   UNL     1      10.433  -1.448  -3.486  0.00  0.00    +0.000 A 
ENDROOT
BRANCH   1  16
ATOM     11  C   UNL     1       5.663   1.976  -1.888  0.00  0.00    +0.000 A 
ATOM     12  N   UNL     1       5.507   3.283  -1.891  0.00  0.00    +0.000 NA
ATOM     13  N   UNL     1       6.353   3.812  -2.846  0.00  0.00    +0.000 NA
ATOM     14  C   UNL     1       7.016   2.818  -3.397  0.00  0.00    +0.000 A 
ATOM     15 BR   UNL     1       8.075   3.038  -4.939  0.00  0.00    +0.000 Br
ATOM     16  N   UNL     1       6.689   1.631  -2.764  0.00  0.00    +0.000 N 
BRANCH  11  17
ATOM     17  S   UNL     1       4.968   0.880  -0.722  0.00  0.00    +0.000 S 
BRANCH  17  18
ATOM     18  C   UNL     1       3.147   1.003  -0.911  0.00  0.00    +0.000 C 
BRANCH  18  19
ATOM     19  C   UNL     1       2.437  -0.033  -0.028  0.00  0.00    +0.000 C 
ATOM     20  O   UNL     1       2.990  -0.874   0.679  0.00  0.00    +0.000 OA
BRANCH  19  21
ATOM     21  O   UNL     1       1.082   0.006  -0.083  0.00  0.00    +0.000 OA
ATOM     22  H   UNL     1       0.665   0.682  -0.649  0.00  0.00    +0.000 HD
ENDBRANCH  19  21
ENDBRANCH  18  19
ENDBRANCH  17  18
ENDBRANCH  11  17
ENDBRANCH   1  16
BRANCH   4  23
ATOM     23  C   UNL     1       8.576  -3.683  -3.982  0.00  0.00    +0.000 C 
ATOM     24  C   UNL     1       7.652  -4.864  -3.836  0.00  0.00    +0.000 C 
ATOM     25  C   UNL     1       8.404  -4.643  -5.120  0.00  0.00    +0.000 C 
ENDBRANCH   4  23
TORSDOF 6
