REMARK  Name = Letermovir
REMARK  10 active torsions:
REMARK  status: ('A' for Active; 'I' for Inactive)
REMARK    1  A    between atoms: C_1  and  O_2
REMARK    2  A    between atoms: O_2  and  C_3
REMARK    3  A    between atoms: C_7  and  N_9
REMARK    4  A    between atoms: C_24  and  C_25
REMARK    5  A    between atoms: C_25  and  C_26
REMARK    6  A    between atoms: C_26  and  O_27
REMARK    7  A    between atoms: N_29  and  C_30
REMARK    8  A    between atoms: C_32  and  C_38
REMARK    9  A    between atoms: C_35  and  O_36
REMARK   10  A    between atoms: O_36  and  C_37
REMARK                            x       y       z     vdW  Elec       q    Type
REMARK                         _______ _______ _______ _____ _____    ______ ____
ROOT
ATOM      1  N   UNL     1       3.366  -1.884  -4.324  0.00  0.00    +0.000 N 
ATOM      2  C   UNL     1       3.174  -3.161  -4.968  0.00  0.00    +0.000 C 
ATOM      3  C   UNL     1       2.002  -2.995  -5.903  0.00  0.00    +0.000 C 
ATOM      4  N   UNL     1       2.125  -1.816  -6.848  0.00  0.00    +0.000 N 
ATOM      5  C   UNL     1       2.109  -0.609  -6.031  0.00  0.00    +0.000 C 
ATOM      6  C   UNL     1       3.392  -0.699  -5.191  0.00  0.00    +0.000 C 
ATOM      7  C   UNL     1       1.709  -1.751  -8.180  0.00  0.00    +0.000 C 
ATOM      8  N   UNL     1       0.933  -0.843  -8.757  0.00  0.00    +0.000 NA
ATOM      9  C   UNL     1       0.537  -1.108 -10.117  0.00  0.00    +0.000 A 
ATOM     10  C   UNL     1       1.523  -0.966 -11.035  0.00  0.00    +0.000 A 
ATOM     11  C   UNL     1       1.277  -0.832 -12.433  0.00  0.00    +0.000 A 
ATOM     12  C   UNL     1       0.134  -1.388 -12.949  0.00  0.00    +0.000 A 
ATOM     13  C   UNL     1      -0.698  -2.021 -12.040  0.00  0.00    +0.000 A 
ATOM     14  C   UNL     1      -0.507  -1.857 -10.646  0.00  0.00    +0.000 A 
ATOM     15  F   UNL     1      -1.250  -2.630  -9.851  0.00  0.00    +0.000 F 
ATOM     16  C   UNL     1       2.795  -1.583 -10.425  0.00  0.00    +0.000 C 
ATOM     17  N   UNL     1       2.227  -2.716  -9.004  0.00  0.00    +0.000 N 
ENDROOT
BRANCH   1  22
ATOM     18  C   UNL     1       2.994  -0.883  -0.814  0.00  0.00    +0.000 A 
ATOM     19  C   UNL     1       4.067  -1.579  -0.256  0.00  0.00    +0.000 A 
ATOM     20  C   UNL     1       4.848  -2.425  -1.039  0.00  0.00    +0.000 A 
ATOM     21  C   UNL     1       4.544  -2.585  -2.381  0.00  0.00    +0.000 A 
ATOM     22  C   UNL     1       3.528  -1.831  -2.971  0.00  0.00    +0.000 A 
ATOM     23  C   UNL     1       2.730  -1.002  -2.175  0.00  0.00    +0.000 A 
BRANCH  18  25
ATOM     24  C   UNL     1       0.934  -0.017  -0.073  0.00  0.00    +0.000 C 
ATOM     25  O   UNL     1       2.354  -0.004   0.015  0.00  0.00    +0.000 OA
ENDBRANCH  18  25
ENDBRANCH   1  22
BRANCH  17  26
ATOM     26  C   UNL     1       1.266  -4.063  -8.646  0.00  0.00    +0.000 A 
ATOM     27  C   UNL     1       1.697  -5.436  -8.856  0.00  0.00    +0.000 A 
ATOM     28  C   UNL     1       1.245  -6.681  -8.001  0.00  0.00    +0.000 A 
ATOM     29  C   UNL     1       0.532  -6.599  -6.806  0.00  0.00    +0.000 A 
ATOM     30  C   UNL     1      -0.014  -5.380  -6.592  0.00  0.00    +0.000 A 
ATOM     31  C   UNL     1       0.215  -4.184  -7.479  0.00  0.00    +0.000 A 
BRANCH  28  32
ATOM     32  C   UNL     1       1.387  -8.150  -8.433  0.00  0.00    +0.000 C 
ATOM     33  F   UNL     1       0.646  -8.418  -9.542  0.00  0.00    +0.000 F 
ATOM     34  F   UNL     1       2.661  -8.521  -8.692  0.00  0.00    +0.000 F 
ATOM     35  F   UNL     1       0.933  -9.064  -7.503  0.00  0.00    +0.000 F 
ENDBRANCH  28  32
BRANCH  31  36
ATOM     36  O   UNL     1      -0.611  -3.365  -6.726  0.00  0.00    +0.000 OA
ATOM     37  C   UNL     1      -0.981  -2.080  -7.042  0.00  0.00    +0.000 C 
ENDBRANCH  31  36
ENDBRANCH  17  26
BRANCH  16  38
ATOM     38  C   UNL     1       3.871  -0.255 -11.065  0.00  0.00    +0.000 C 
BRANCH  38  39
ATOM     39  C   UNL     1       4.369   1.179 -10.613  0.00  0.00    +0.000 C 
ATOM     40  O   UNL     1       5.163   1.860 -11.362  0.00  0.00    +0.000 OA
BRANCH  39  41
ATOM     41  O   UNL     1       3.873   1.787  -9.558  0.00  0.00    +0.000 OA
ATOM     42  H   UNL     1       3.121   1.320  -9.138  0.00  0.00    +0.000 HD
ENDBRANCH  39  41
ENDBRANCH  38  39
ENDBRANCH  16  38
TORSDOF 8
