REMARK  Name = Letrozole
REMARK  5 active torsions:
REMARK  status: ('A' for Active; 'I' for Inactive)
REMARK    1  A    between atoms: C_2  and  C_3
REMARK    2  A    between atoms: C_6  and  C_9
REMARK    3  A    between atoms: C_9  and  N_10
REMARK    4  A    between atoms: C_9  and  C_15
REMARK    5  A    between atoms: C_18  and  C_21
REMARK                            x       y       z     vdW  Elec       q    Type
REMARK                         _______ _______ _______ _____ _____    ______ ____
ROOT
ATOM      1  C   UNL     1       3.840  -0.060   0.226  0.00  0.00    +0.000 C 
ENDROOT
BRANCH   1   5
ATOM      2  C   UNL     1      -0.514   0.032  -0.059  0.00  0.00    +0.000 A 
ATOM      3  C   UNL     1       0.217   1.224  -0.052  0.00  0.00    +0.000 A 
ATOM      4  C   UNL     1       1.618   1.199  -0.000  0.00  0.00    +0.000 A 
ATOM      5  C   UNL     1       2.306  -0.025   0.078  0.00  0.00    +0.000 A 
ATOM      6  C   UNL     1       1.539  -1.206   0.054  0.00  0.00    +0.000 A 
ATOM      7  C   UNL     1       0.154  -1.185  -0.043  0.00  0.00    +0.000 A 
BRANCH   2   9
ATOM      8  N   UNL     1      -3.102   0.009   0.037  0.00  0.00    +0.000 NA
ATOM      9  C   UNL     1      -1.946   0.037  -0.024  0.00  0.00    +0.000 C 
ENDBRANCH   2   9
ENDBRANCH   1   5
BRANCH   1  10
ATOM     10  C   UNL     1       4.444  -1.484   0.216  0.00  0.00    +0.000 A 
ATOM     11  C   UNL     1       4.209  -2.340  -0.880  0.00  0.00    +0.000 A 
ATOM     12  C   UNL     1       4.625  -3.674  -0.851  0.00  0.00    +0.000 A 
ATOM     13  C   UNL     1       5.358  -4.156   0.234  0.00  0.00    +0.000 A 
ATOM     14  C   UNL     1       5.611  -3.327   1.321  0.00  0.00    +0.000 A 
ATOM     15  C   UNL     1       5.164  -2.009   1.305  0.00  0.00    +0.000 A 
BRANCH  13  16
ATOM     16  C   UNL     1       5.909  -5.478   0.205  0.00  0.00    +0.000 C 
ATOM     17  N   UNL     1       6.389  -6.529   0.161  0.00  0.00    +0.000 NA
ENDBRANCH  13  16
ENDBRANCH   1  10
BRANCH   1  18
ATOM     18  N   UNL     1       4.223   0.675   1.445  0.00  0.00    +0.000 N 
ATOM     19  C   UNL     1       3.840   0.384   2.726  0.00  0.00    +0.000 A 
ATOM     20  N   UNL     1       4.558   1.080   3.573  0.00  0.00    +0.000 NA
ATOM     21  C   UNL     1       5.344   1.841   2.755  0.00  0.00    +0.000 A 
ATOM     22  N   UNL     1       5.176   1.635   1.444  0.00  0.00    +0.000 NA
ENDBRANCH   1  18
TORSDOF 5
