REMARK  Name = Leucovorin
REMARK  11 active torsions:
REMARK  status: ('A' for Active; 'I' for Inactive)
REMARK    1  A    between atoms: C_5  and  C_6
REMARK    2  A    between atoms: C_6  and  N_7
REMARK    3  A    between atoms: N_7  and  C_8
REMARK    4  A    between atoms: C_11  and  C_14
REMARK    5  A    between atoms: N_16  and  CA_17
REMARK    6  A    between atoms: CA_17  and  CB_18
REMARK    7  A    between atoms: CA_17  and  C_23
REMARK    8  A    between atoms: CB_18  and  CG_19
REMARK    9  A    between atoms: CG_19  and  CD_20
REMARK   10  A    between atoms: CD_20  and  OE1_21
REMARK   11  A    between atoms: C_23  and  O_24
REMARK                            x       y       z     vdW  Elec       q    Type
REMARK                         _______ _______ _______ _____ _____    ______ ____
ROOT
ATOM      1  N   UNK A   0       1.074   4.139  -1.922  0.00  0.00    +0.000 N 
ATOM      2  H   UNK A   0       1.449   4.806  -1.259  0.00  0.00    +0.000 HD
ENDROOT
BRANCH   1   3
ATOM      3  C   UNK A   0       0.406   4.668  -3.007  0.00  0.00    +0.000 A 
ATOM      4  C   UNK A   0       0.739   5.925  -3.516  0.00  0.00    +0.000 A 
ATOM      5  C   UNK A   0      -0.043   6.509  -4.518  0.00  0.00    +0.000 A 
ATOM      6  C   UNK A   0      -1.121   5.804  -5.074  0.00  0.00    +0.000 A 
ATOM      7  C   UNK A   0      -1.396   4.514  -4.621  0.00  0.00    +0.000 A 
ATOM      8  C   UNK A   0      -0.628   3.953  -3.607  0.00  0.00    +0.000 A 
BRANCH   6   9
ATOM      9  C   UNK A   0      -1.937   6.460  -6.133  0.00  0.00    +0.000 C 
ATOM     10  O   UNK A   0      -1.825   7.670  -6.307  0.00  0.00    +0.000 OA
ATOM     11  N   GLU A   1      -2.750   5.649  -6.912  0.00  0.00    +0.000 N 
ATOM     12  H   GLU A   1      -2.823   4.691  -6.640  0.00  0.00    +0.000 HD
BRANCH  11  13
ATOM     13  CA  GLU A   1      -3.439   6.119  -8.127  0.00  0.00    +0.000 C 
BRANCH  13  14
ATOM     14  C   GLU A   1      -4.542   5.176  -8.682  0.00  0.00    +0.000 C 
ATOM     15  OXT GLU A   1      -5.201   5.448  -9.680  0.00  0.00    +0.000 OA
BRANCH  14  16
ATOM     16  O   GLU A   1      -4.722   3.991  -8.063  0.00  0.00    +0.000 OA
ATOM     17  H   GLU A   1      -4.207   3.791  -7.270  0.00  0.00    +0.000 HD
ENDBRANCH  14  16
ENDBRANCH  13  14
BRANCH  13  18
ATOM     18  CB  GLU A   1      -2.457   6.365  -9.305  0.00  0.00    +0.000 C 
BRANCH  18  19
ATOM     19  CG  GLU A   1      -1.344   7.362  -9.004  0.00  0.00    +0.000 C 
BRANCH  19  20
ATOM     20  CD  GLU A   1      -0.336   7.687 -10.067  0.00  0.00    +0.000 C 
ATOM     21  OE2 GLU A   1       0.589   8.469  -9.861  0.00  0.00    +0.000 OA
BRANCH  20  22
ATOM     22  OE1 GLU A   1      -0.453   7.031 -11.232  0.00  0.00    +0.000 OA
ATOM     23  HE1 GLU A   1      -1.209   6.425 -11.307  0.00  0.00    +0.000 HD
ENDBRANCH  20  22
ENDBRANCH  19  20
ENDBRANCH  18  19
ENDBRANCH  13  18
ENDBRANCH  11  13
ENDBRANCH   6   9
ENDBRANCH   1   3
BRANCH   1  24
ATOM     24  C   UNK A   0       1.590   2.777  -1.968  0.00  0.00    +0.000 C 
BRANCH  24  28
ATOM     25  C   UNK A   0       2.172   0.100   0.090  0.00  0.00    +0.000 C 
ATOM     26  O   UNK A   0       2.704  -0.807   0.716  0.00  0.00    +0.000 OA
ATOM     27  N   UNK A   0       2.819   1.026  -0.705  0.00  0.00    +0.000 N 
ATOM     28  C   UNK A   0       2.398   2.443  -0.696  0.00  0.00    +0.000 C 
ATOM     29  C   UNK A   0       3.638   3.362  -0.573  0.00  0.00    +0.000 C 
ATOM     30  N   UNK A   0       4.640   2.949  -1.533  0.00  0.00    +0.000 N 
ATOM     31  C   UNK A   0       4.807   1.631  -1.930  0.00  0.00    +0.000 A 
ATOM     32  C   UNK A   0       3.929   0.693  -1.486  0.00  0.00    +0.000 A 
ATOM     33  C   UNK A   0       4.082  -0.684  -2.029  0.00  0.00    +0.000 A 
ATOM     34  O   UNK A   0       3.246  -1.579  -1.891  0.00  0.00    +0.000 OA
ATOM     35  N   UNK A   0       5.153  -0.874  -2.840  0.00  0.00    +0.000 N 
ATOM     36  C   UNK A   0       5.967   0.139  -3.226  0.00  0.00    +0.000 A 
ATOM     37  N   UNK A   0       6.932  -0.189  -4.107  0.00  0.00    +0.000 N 
ATOM     38  N   UNK A   0       5.838   1.348  -2.791  0.00  0.00    +0.000 NA
ATOM     39  H   UNK A   0       5.417   3.559  -1.762  0.00  0.00    +0.000 HD
ATOM     40  H   UNK A   0       5.241  -1.793  -3.236  0.00  0.00    +0.000 HD
ATOM     41  H   UNK A   0       7.080  -1.131  -4.432  0.00  0.00    +0.000 HD
ATOM     42  H   UNK A   0       7.623   0.515  -4.335  0.00  0.00    +0.000 HD
ENDBRANCH  24  28
ENDBRANCH   1  24
TORSDOF 11
