REMARK  Name = Levallorphan
REMARK  3 active torsions:
REMARK  status: ('A' for Active; 'I' for Inactive)
REMARK    1  A    between atoms: N_10  and  C_11
REMARK    2  A    between atoms: C_11  and  C_12
REMARK    3  A    between atoms: C_19  and  O_20
REMARK                            x       y       z     vdW  Elec       q    Type
REMARK                         _______ _______ _______ _____ _____    ______ ____
ROOT
ATOM      1  C   UNL     1       2.016   0.023   0.240  0.00  0.00    +0.000 C 
ATOM      2  C   UNL     1       2.442   1.449   0.760  0.00  0.00    +0.000 C 
ATOM      3  C   UNL     1       2.317   2.553  -0.231  0.00  0.00    +0.000 C 
ATOM      4  C   UNL     1       2.802   2.053  -1.559  0.00  0.00    +0.000 C 
ATOM      5  C   UNL     1       3.227   0.529  -1.692  0.00  0.00    +0.000 C 
ATOM      6  C   UNL     1       3.001  -0.847  -0.608  0.00  0.00    +0.000 C 
ATOM      7  C   UNL     1       3.987  -2.072   0.833  0.00  0.00    +0.000 C 
ATOM      8  C   UNL     1       4.553  -1.403   2.070  0.00  0.00    +0.000 C 
ATOM      9  N   UNL     1       4.152  -0.402   1.221  0.00  0.00    +0.000 NA
ATOM     10  C   UNL     1       2.339  -0.920   1.258  0.00  0.00    +0.000 C 
ATOM     11  C   UNL     1       1.636  -2.546   0.593  0.00  0.00    +0.000 C 
ATOM     12  C   UNL     1       1.951  -2.881  -0.892  0.00  0.00    +0.000 A 
ATOM     13  C   UNL     1       2.349  -1.803  -1.608  0.00  0.00    +0.000 A 
ATOM     14  C   UNL     1       2.498  -1.824  -3.043  0.00  0.00    +0.000 A 
ATOM     15  C   UNL     1       2.531  -3.032  -3.700  0.00  0.00    +0.000 A 
ATOM     16  C   UNL     1       2.513  -4.170  -2.919  0.00  0.00    +0.000 A 
ATOM     17  C   UNL     1       2.226  -4.093  -1.525  0.00  0.00    +0.000 A 
ENDROOT
BRANCH  15  18
ATOM     18  O   UNL     1       2.723  -3.137  -5.046  0.00  0.00    +0.000 OA
ATOM     19  H   UNL     1       2.633  -2.266  -5.471  0.00  0.00    +0.000 HD
ENDBRANCH  15  18
BRANCH   9  20
ATOM     20  C   UNL     1       5.324  -0.688  -0.173  0.00  0.00    +0.000 C 
BRANCH  20  21
ATOM     21  C   UNL     1       5.385  -2.140  -1.075  0.00  0.00    +0.000 C 
ATOM     22  C   UNL     1       5.797  -2.571  -2.260  0.00  0.00    +0.000 C 
ENDBRANCH  20  21
ENDBRANCH   9  20
TORSDOF 3
