REMARK  Name = Levamlodipine
REMARK  14 active torsions:
REMARK  status: ('A' for Active; 'I' for Inactive)
REMARK    1  A    between atoms: C_1  and  C_2
REMARK    2  A    between atoms: C_2  and  O_3
REMARK    3  A    between atoms: O_3  and  C_4
REMARK    4  A    between atoms: C_4  and  C_6
REMARK    5  A    between atoms: C_7  and  C_8
REMARK    6  A    between atoms: C_8  and  O_9
REMARK    7  A    between atoms: O_9  and  C_10
REMARK    8  A    between atoms: C_10  and  C_11
REMARK    9  A    between atoms: C_11  and  N_12
REMARK   10  A    between atoms: C_14  and  C_15
REMARK   11  A    between atoms: C_16  and  C_25
REMARK   12  A    between atoms: C_17  and  C_18
REMARK   13  A    between atoms: C_25  and  O_27
REMARK   14  A    between atoms: O_27  and  C_28
REMARK                            x       y       z     vdW  Elec       q    Type
REMARK                         _______ _______ _______ _____ _____    ______ ____
ROOT
ATOM      1  C   UNL     1       4.820   1.388  -2.598  0.00  0.00    +0.000 C 
ATOM      2  C   UNL     1       4.315   2.596  -2.941  0.00  0.00    +0.000 C 
ATOM      3  N   UNL     1       4.614   3.120  -4.202  0.00  0.00    +0.000 N 
ATOM      4  C   UNL     1       5.143   2.369  -5.249  0.00  0.00    +0.000 C 
ATOM      5  C   UNL     1       4.967   2.927  -6.641  0.00  0.00    +0.000 C 
ATOM      6  C   UNL     1       5.742   1.175  -5.008  0.00  0.00    +0.000 C 
ATOM      7  C   UNL     1       5.803   0.675  -3.547  0.00  0.00    +0.000 C 
ATOM      8  H   UNL     1       4.162   3.996  -4.454  0.00  0.00    +0.000 HD
ENDROOT
BRANCH   7   9
ATOM      9  C   UNL     1       5.617  -0.823  -3.451  0.00  0.00    +0.000 A 
ATOM     10  C   UNL     1       6.695  -1.614  -3.004  0.00  0.00    +0.000 A 
ATOM     11  C   UNL     1       6.558  -2.995  -2.939  0.00  0.00    +0.000 A 
ATOM     12  C   UNL     1       5.345  -3.586  -3.289  0.00  0.00    +0.000 A 
ATOM     13  C   UNL     1       4.277  -2.810  -3.732  0.00  0.00    +0.000 A 
ATOM     14  C   UNL     1       4.411  -1.436  -3.832  0.00  0.00    +0.000 A 
ATOM     15 CL   UNL     1       3.055  -0.563  -4.466  0.00  0.00    +0.000 Cl
ENDBRANCH   7   9
BRANCH   1  16
ATOM     16  C   UNL     1       4.419   0.665  -1.346  0.00  0.00    +0.000 C 
ATOM     17  O   UNL     1       5.228   0.247  -0.524  0.00  0.00    +0.000 OA
BRANCH  16  18
ATOM     18  O   UNL     1       3.066   0.448  -1.308  0.00  0.00    +0.000 OA
BRANCH  18  20
ATOM     19  C   UNL     1       1.040  -0.136  -0.077  0.00  0.00    +0.000 C 
ATOM     20  C   UNL     1       2.569  -0.187  -0.114  0.00  0.00    +0.000 C 
ENDBRANCH  18  20
ENDBRANCH  16  18
ENDBRANCH   1  16
BRANCH   6  21
ATOM     21  C   UNL     1       6.227   0.342  -6.168  0.00  0.00    +0.000 C 
ATOM     22  O   UNL     1       6.038   0.615  -7.353  0.00  0.00    +0.000 OA
BRANCH  21  23
ATOM     23  O   UNL     1       6.894  -0.773  -5.794  0.00  0.00    +0.000 OA
ATOM     24  C   UNL     1       7.240  -1.645  -6.877  0.00  0.00    +0.000 C 
ENDBRANCH  21  23
ENDBRANCH   6  21
BRANCH   2  25
ATOM     25  C   UNL     1       3.425   3.451  -2.052  0.00  0.00    +0.000 C 
BRANCH  25  26
ATOM     26  O   UNL     1       3.362   2.939  -0.729  0.00  0.00    +0.000 OA
BRANCH  26  27
ATOM     27  C   UNL     1       2.425   3.623   0.084  0.00  0.00    +0.000 C 
BRANCH  27  28
ATOM     28  C   UNL     1       2.297   2.904   1.427  0.00  0.00    +0.000 C 
BRANCH  28  29
ATOM     29  N   UNL     1       1.438   3.640   2.343  0.00  0.00    +0.000 NA
ATOM     30  H   UNL     1       1.868   4.539   2.545  0.00  0.00    +0.000 HD
ATOM     31  H   UNL     1       1.387   3.130   3.224  0.00  0.00    +0.000 HD
ENDBRANCH  28  29
ENDBRANCH  27  28
ENDBRANCH  26  27
ENDBRANCH  25  26
ENDBRANCH   2  25
TORSDOF 11
