REMARK  Name = Levacetylmethadol
REMARK  14 active torsions:
REMARK  status: ('A' for Active; 'I' for Inactive)
REMARK    1  A    between atoms: C_1  and  C_2
REMARK    2  A    between atoms: C_2  and  C_3
REMARK    3  A    between atoms: C_3  and  O_4
REMARK    4  A    between atoms: C_3  and  C_8
REMARK    5  A    between atoms: O_4  and  C_5
REMARK    6  A    between atoms: C_5  and  C_6
REMARK    7  A    between atoms: C_8  and  C_9
REMARK    8  A    between atoms: C_8  and  C_15
REMARK    9  A    between atoms: C_8  and  C_21
REMARK   10  A    between atoms: C_9  and  C_10
REMARK   11  A    between atoms: C_10  and  C_11
REMARK   12  A    between atoms: C_10  and  N_12
REMARK   13  A    between atoms: N_12  and  C_13
REMARK   14  A    between atoms: N_12  and  C_14
REMARK                            x       y       z     vdW  Elec       q    Type
REMARK                         _______ _______ _______ _____ _____    ______ ____
ROOT
ATOM      1  C   UNL     1       2.513   2.348  -0.262  0.00  0.00    +0.000 C 
ENDROOT
BRANCH   1   2
ATOM      2  C   UNL     1       3.075   3.628  -1.038  0.00  0.00    +0.000 A 
ATOM      3  C   UNL     1       4.442   3.793  -1.279  0.00  0.00    +0.000 A 
ATOM      4  C   UNL     1       4.991   4.727  -2.164  0.00  0.00    +0.000 A 
ATOM      5  C   UNL     1       4.149   5.535  -2.886  0.00  0.00    +0.000 A 
ATOM      6  C   UNL     1       2.832   5.605  -2.478  0.00  0.00    +0.000 A 
ATOM      7  C   UNL     1       2.354   4.746  -1.471  0.00  0.00    +0.000 A 
ENDBRANCH   1   2
BRANCH   1   8
ATOM      8  C   UNL     1       0.894   2.298  -0.174  0.00  0.00    +0.000 A 
ATOM      9  C   UNL     1      -0.000   3.074  -0.925  0.00  0.00    +0.000 A 
ATOM     10  C   UNL     1      -1.382   3.065  -0.707  0.00  0.00    +0.000 A 
ATOM     11  C   UNL     1      -1.954   2.005  -0.036  0.00  0.00    +0.000 A 
ATOM     12  C   UNL     1      -1.124   1.102   0.594  0.00  0.00    +0.000 A 
ATOM     13  C   UNL     1       0.249   1.363   0.659  0.00  0.00    +0.000 A 
ENDBRANCH   1   8
BRANCH   1  14
ATOM     14  C   UNL     1       2.879   0.808  -0.927  0.00  0.00    +0.000 C 
BRANCH  14  16
ATOM     15  C   UNL     1       3.065  -1.734  -0.286  0.00  0.00    +0.000 C 
ATOM     16  C   UNL     1       2.572  -0.356   0.093  0.00  0.00    +0.000 C 
ENDBRANCH  14  16
BRANCH  14  17
ATOM     17  O   UNL     1       4.205   0.424  -1.455  0.00  0.00    +0.000 OA
BRANCH  17  18
ATOM     18  C   UNL     1       5.041   1.089  -2.291  0.00  0.00    +0.000 C 
ATOM     19  C   UNL     1       4.372   1.834  -3.390  0.00  0.00    +0.000 C 
ATOM     20  O   UNL     1       6.240   1.114  -2.121  0.00  0.00    +0.000 OA
ENDBRANCH  17  18
ENDBRANCH  14  17
ENDBRANCH   1  14
BRANCH   1  21
ATOM     21  C   UNL     1       3.046   2.548   1.236  0.00  0.00    +0.000 C 
BRANCH  21  22
ATOM     22  C   UNL     1       4.597   2.549   1.494  0.00  0.00    +0.000 C 
ATOM     23  C   UNL     1       5.255   1.303   0.952  0.00  0.00    +0.000 C 
BRANCH  22  24
ATOM     24  N   UNL     1       5.081   2.724   2.867  0.00  0.00    +0.000 NA
ATOM     25  C   UNL     1       6.564   2.781   2.832  0.00  0.00    +0.000 C 
ATOM     26  C   UNL     1       4.577   3.999   3.376  0.00  0.00    +0.000 C 
ENDBRANCH  22  24
ENDBRANCH  21  22
ENDBRANCH   1  21
TORSDOF 9
