REMARK  Name = Levamisole
REMARK  1 active torsions:
REMARK  status: ('A' for Active; 'I' for Inactive)
REMARK    1  A    between atoms: C_5  and  C_9
REMARK                            x       y       z     vdW  Elec       q    Type
REMARK                         _______ _______ _______ _____ _____    ______ ____
ROOT
ATOM      1  C   UNL     1       2.201   0.666   0.016  0.00  0.00    +0.000 C 
ATOM      2  C   UNL     1       0.930   1.535   0.015  0.00  0.00    +0.000 C 
ATOM      3  N   UNL     1      -0.184   0.645  -0.042  0.00  0.00    +0.000 N 
ATOM      4  C   UNL     1      -1.578   0.947  -0.019  0.00  0.00    +0.000 C 
ATOM      5  C   UNL     1      -2.198  -0.496  -0.018  0.00  0.00    +0.000 C 
ATOM      6  N   UNL     1      -1.020  -1.468  -0.040  0.00  0.00    +0.000 NA
ATOM      7  C   UNL     1       0.009  -0.685  -0.033  0.00  0.00    +0.000 C 
ATOM      8  S   UNL     1       1.683  -1.102  -0.016  0.00  0.00    +0.000 S 
ENDROOT
BRANCH   5   9
ATOM      9  C   UNL     1      -3.137  -0.695   1.164  0.00  0.00    +0.000 A 
ATOM     10  C   UNL     1      -4.211   0.188   1.388  0.00  0.00    +0.000 A 
ATOM     11  C   UNL     1      -4.973   0.101   2.557  0.00  0.00    +0.000 A 
ATOM     12  C   UNL     1      -4.732  -0.921   3.472  0.00  0.00    +0.000 A 
ATOM     13  C   UNL     1      -3.721  -1.846   3.226  0.00  0.00    +0.000 A 
ATOM     14  C   UNL     1      -2.930  -1.732   2.082  0.00  0.00    +0.000 A 
ENDBRANCH   5   9
TORSDOF 1
