REMARK  Name = Levetiracetam
REMARK  4 active torsions:
REMARK  status: ('A' for Active; 'I' for Inactive)
REMARK    1  A    between atoms: C_1  and  C_2
REMARK    2  A    between atoms: C_2  and  C_3
REMARK    3  A    between atoms: C_3  and  N_4
REMARK    4  A    between atoms: C_3  and  C_10
REMARK                            x       y       z     vdW  Elec       q    Type
REMARK                         _______ _______ _______ _____ _____    ______ ____
ROOT
ATOM      1  C   UNL     1       3.107  -1.166  -0.773  0.00  0.00    +0.000 C 
ENDROOT
BRANCH   1   2
ATOM      2  N   UNL     1       2.453  -0.080  -0.000  0.00  0.00    +0.000 N 
ATOM      3  C   UNL     1       2.872   0.433   1.292  0.00  0.00    +0.000 C 
ATOM      4  C   UNL     1       1.661   1.204   1.797  0.00  0.00    +0.000 C 
ATOM      5  C   UNL     1       0.963   1.613   0.518  0.00  0.00    +0.000 C 
ATOM      6  C   UNL     1       1.148   0.358  -0.272  0.00  0.00    +0.000 C 
ATOM      7  O   UNL     1       0.335  -0.095  -1.050  0.00  0.00    +0.000 OA
ENDBRANCH   1   2
BRANCH   1   8
ATOM      8  C   UNL     1       4.661  -1.286  -0.770  0.00  0.00    +0.000 C 
ATOM      9  N   UNL     1       5.390  -0.329  -0.133  0.00  0.00    +0.000 N 
ATOM     10  O   UNL     1       5.262  -2.202  -1.331  0.00  0.00    +0.000 OA
ATOM     11  H   UNL     1       4.997   0.564   0.095  0.00  0.00    +0.000 HD
ATOM     12  H   UNL     1       6.397  -0.377  -0.220  0.00  0.00    +0.000 HD
ENDBRANCH   1   8
BRANCH   1  14
ATOM     13  C   UNL     1       2.629   0.259  -2.887  0.00  0.00    +0.000 C 
ATOM     14  C   UNL     1       2.661  -1.145  -2.265  0.00  0.00    +0.000 C 
ENDBRANCH   1  14
TORSDOF 3
