REMARK  Name = Levmetamfetamine
REMARK  5 active torsions:
REMARK  status: ('A' for Active; 'I' for Inactive)
REMARK    1  A    between atoms: C_1  and  N_2
REMARK    2  A    between atoms: N_2  and  C_3
REMARK    3  A    between atoms: C_3  and  C_4
REMARK    4  A    between atoms: C_3  and  C_5
REMARK    5  A    between atoms: C_5  and  C_6
REMARK                            x       y       z     vdW  Elec       q    Type
REMARK                         _______ _______ _______ _____ _____    ______ ____
ROOT
ATOM      1  C   UNL     1       4.449   0.550   1.303  0.00  0.00    +0.000 C 
ENDROOT
BRANCH   1   2
ATOM      2  C   UNL     1       4.949   1.249   2.550  0.00  0.00    +0.000 A 
ATOM      3  C   UNL     1       5.296   0.497   3.683  0.00  0.00    +0.000 A 
ATOM      4  C   UNL     1       5.448   1.130   4.917  0.00  0.00    +0.000 A 
ATOM      5  C   UNL     1       5.339   2.513   5.011  0.00  0.00    +0.000 A 
ATOM      6  C   UNL     1       5.075   3.276   3.873  0.00  0.00    +0.000 A 
ATOM      7  C   UNL     1       4.876   2.643   2.646  0.00  0.00    +0.000 A 
ENDBRANCH   1   2
BRANCH   1   8
ATOM      8  C   UNL     1       2.894   0.504   1.280  0.00  0.00    +0.000 C 
ATOM      9  C   UNL     1       2.394  -0.041  -0.059  0.00  0.00    +0.000 C 
BRANCH   8  11
ATOM     10  C   UNL     1       2.056  -1.604   2.286  0.00  0.00    +0.000 C 
ATOM     11  N   UNL     1       2.301  -0.183   2.446  0.00  0.00    +0.000 NA
ATOM     12  H   UNL     1       2.893  -0.029   3.264  0.00  0.00    +0.000 HD
ENDBRANCH   8  11
ENDBRANCH   1   8
TORSDOF 3
