REMARK  Name = Levorphanol
REMARK  2 active torsions:
REMARK  status: ('A' for Active; 'I' for Inactive)
REMARK    1  A    between atoms: N_10  and  C_11
REMARK    2  A    between atoms: C_17  and  O_18
REMARK                            x       y       z     vdW  Elec       q    Type
REMARK                         _______ _______ _______ _____ _____    ______ ____
ROOT
ATOM      1  C   UNL     1       2.124  -0.163   0.083  0.00  0.00    +0.000 C 
ATOM      2  C   UNL     1       2.462   1.277   0.603  0.00  0.00    +0.000 C 
ATOM      3  C   UNL     1       2.332   2.362  -0.406  0.00  0.00    +0.000 C 
ATOM      4  C   UNL     1       2.855   1.876  -1.734  0.00  0.00    +0.000 C 
ATOM      5  C   UNL     1       3.283   0.358  -1.930  0.00  0.00    +0.000 C 
ATOM      6  C   UNL     1       3.046  -0.904  -0.929  0.00  0.00    +0.000 C 
ATOM      7  C   UNL     1       4.193  -2.276   0.101  0.00  0.00    +0.000 C 
ATOM      8  C   UNL     1       4.652  -1.857   1.552  0.00  0.00    +0.000 C 
ATOM      9  N   UNL     1       4.192  -0.583   1.251  0.00  0.00    +0.000 NA
ATOM     10  C   UNL     1       5.281  -0.237   0.017  0.00  0.00    +0.000 C 
ATOM     11  C   UNL     1       2.487  -1.086   1.129  0.00  0.00    +0.000 C 
ATOM     12  C   UNL     1       1.731  -2.646   0.509  0.00  0.00    +0.000 C 
ATOM     13  C   UNL     1       1.989  -3.018  -1.024  0.00  0.00    +0.000 A 
ATOM     14  C   UNL     1       2.358  -1.958  -1.788  0.00  0.00    +0.000 A 
ATOM     15  C   UNL     1       2.524  -2.009  -3.213  0.00  0.00    +0.000 A 
ATOM     16  C   UNL     1       2.564  -3.251  -3.825  0.00  0.00    +0.000 A 
ATOM     17  C   UNL     1       2.541  -4.358  -3.026  0.00  0.00    +0.000 A 
ATOM     18  C   UNL     1       2.249  -4.269  -1.624  0.00  0.00    +0.000 A 
ENDROOT
BRANCH  16  19
ATOM     19  O   UNL     1       2.746  -3.339  -5.175  0.00  0.00    +0.000 OA
ATOM     20  H   UNL     1       2.638  -2.464  -5.582  0.00  0.00    +0.000 HD
ENDBRANCH  16  19
TORSDOF 1
