REMARK  Name = Levobetaxolol
REMARK  14 active torsions:
REMARK  status: ('A' for Active; 'I' for Inactive)
REMARK    1  A    between atoms: C_1  and  C_2
REMARK    2  A    between atoms: C_2  and  C_3
REMARK    3  A    between atoms: C_2  and  N_4
REMARK    4  A    between atoms: N_4  and  C_5
REMARK    5  A    between atoms: C_5  and  C_6
REMARK    6  A    between atoms: C_6  and  O_7
REMARK    7  A    between atoms: C_6  and  C_8
REMARK    8  A    between atoms: C_8  and  O_9
REMARK    9  A    between atoms: O_9  and  C_10
REMARK   10  A    between atoms: C_13  and  C_14
REMARK   11  A    between atoms: C_14  and  C_15
REMARK   12  A    between atoms: C_15  and  O_16
REMARK   13  A    between atoms: O_16  and  C_17
REMARK   14  A    between atoms: C_17  and  C_18
REMARK                            x       y       z     vdW  Elec       q    Type
REMARK                         _______ _______ _______ _____ _____    ______ ____
ROOT
ATOM      1  C   UNL     1       8.387  -1.921  -4.006  0.00  0.00    +0.000 A 
ATOM      2  C   UNL     1       8.898  -1.646  -5.280  0.00  0.00    +0.000 A 
ATOM      3  C   UNL     1      10.252  -1.870  -5.550  0.00  0.00    +0.000 A 
ATOM      4  C   UNL     1      11.095  -2.324  -4.536  0.00  0.00    +0.000 A 
ATOM      5  C   UNL     1      10.547  -2.599  -3.270  0.00  0.00    +0.000 A 
ATOM      6  C   UNL     1       9.206  -2.395  -3.008  0.00  0.00    +0.000 A 
ENDROOT
BRANCH   1   7
ATOM      7  O   UNL     1       7.042  -1.854  -3.826  0.00  0.00    +0.000 OA
BRANCH   7   8
ATOM      8  C   UNL     1       6.615  -1.276  -2.588  0.00  0.00    +0.000 C 
BRANCH   8   9
ATOM      9  C   UNL     1       5.086  -1.185  -2.612  0.00  0.00    +0.000 C 
BRANCH   9  10
ATOM     10  O   UNL     1       4.615  -0.665  -1.363  0.00  0.00    +0.000 OA
ATOM     11  H   UNL     1       4.880   0.270  -1.319  0.00  0.00    +0.000 HD
ENDBRANCH   9  10
BRANCH   9  12
ATOM     12  C   UNL     1       4.517  -0.341  -3.782  0.00  0.00    +0.000 C 
BRANCH  12  13
ATOM     13  N   UNL     1       5.501   0.034  -4.791  0.00  0.00    +0.000 NA
ATOM     14  H   UNL     1       6.305   0.503  -4.380  0.00  0.00    +0.000 HD
BRANCH  13  16
ATOM     15  C   UNL     1       6.211   1.037  -6.858  0.00  0.00    +0.000 C 
ATOM     16  C   UNL     1       5.011   0.754  -5.948  0.00  0.00    +0.000 C 
ATOM     17  C   UNL     1       3.976  -0.070  -6.705  0.00  0.00    +0.000 C 
ENDBRANCH  13  16
ENDBRANCH  12  13
ENDBRANCH   9  12
ENDBRANCH   8   9
ENDBRANCH   7   8
ENDBRANCH   1   7
BRANCH   4  18
ATOM     18  C   UNL     1      12.574  -2.481  -4.795  0.00  0.00    +0.000 C 
BRANCH  18  19
ATOM     19  C   UNL     1      13.317  -2.916  -3.540  0.00  0.00    +0.000 C 
BRANCH  19  20
ATOM     20  O   UNL     1      14.701  -3.024  -3.776  0.00  0.00    +0.000 OA
BRANCH  20  21
ATOM     21  C   UNL     1      15.361  -3.424  -2.577  0.00  0.00    +0.000 C 
BRANCH  21  22
ATOM     22  C   UNL     1      16.823  -3.531  -2.836  0.00  0.00    +0.000 C 
ATOM     23  C   UNL     1      17.335  -4.572  -3.797  0.00  0.00    +0.000 C 
ATOM     24  C   UNL     1      17.421  -3.115  -4.158  0.00  0.00    +0.000 C 
ENDBRANCH  21  22
ENDBRANCH  20  21
ENDBRANCH  19  20
ENDBRANCH  18  19
ENDBRANCH   4  18
TORSDOF 12
