REMARK  Name = Levocetirizine
REMARK  9 active torsions:
REMARK  status: ('A' for Active; 'I' for Inactive)
REMARK    1  A    between atoms: O_1  and  C_2
REMARK    2  A    between atoms: C_2  and  C_4
REMARK    3  A    between atoms: C_4  and  O_5
REMARK    4  A    between atoms: O_5  and  C_6
REMARK    5  A    between atoms: C_6  and  C_7
REMARK    6  A    between atoms: C_7  and  N_8
REMARK    7  A    between atoms: N_11  and  C_14
REMARK    8  A    between atoms: C_14  and  C_15
REMARK    9  A    between atoms: C_14  and  C_21
REMARK                            x       y       z     vdW  Elec       q    Type
REMARK                         _______ _______ _______ _____ _____    ______ ____
ROOT
ATOM      1  N   UNL     1       7.683 -10.559   0.982  0.00  0.00    +0.000 NA
ATOM      2  C   UNL     1       8.670  -9.753   1.727  0.00  0.00    +0.000 C 
ATOM      3  C   UNL     1       9.026  -8.355   1.159  0.00  0.00    +0.000 C 
ATOM      4  N   UNL     1       7.843  -7.582   0.722  0.00  0.00    +0.000 NA
ATOM      5  C   UNL     1       6.789  -8.415   0.107  0.00  0.00    +0.000 C 
ATOM      6  C   UNL     1       6.481  -9.742   0.792  0.00  0.00    +0.000 C 
ENDROOT
BRANCH   1   7
ATOM      7  C   UNL     1       8.035 -11.247  -0.279  0.00  0.00    +0.000 C 
BRANCH   7   8
ATOM      8  C   UNL     1       9.414 -11.099  -0.930  0.00  0.00    +0.000 C 
BRANCH   8   9
ATOM      9  O   UNL     1       9.429 -11.756  -2.200  0.00  0.00    +0.000 OA
BRANCH   9  10
ATOM     10  C   UNL     1      10.635 -11.552  -2.921  0.00  0.00    +0.000 C 
BRANCH  10  11
ATOM     11  C   UNL     1      10.686 -12.213  -4.283  0.00  0.00    +0.000 C 
ATOM     12  O   UNL     1       9.787 -12.908  -4.758  0.00  0.00    +0.000 OA
BRANCH  11  13
ATOM     13  O   UNL     1      11.799 -11.906  -4.994  0.00  0.00    +0.000 OA
ATOM     14  H   UNL     1      12.419 -11.276  -4.576  0.00  0.00    +0.000 HD
ENDBRANCH  11  13
ENDBRANCH  10  11
ENDBRANCH   9  10
ENDBRANCH   8   9
ENDBRANCH   7   8
ENDBRANCH   1   7
BRANCH   4  15
ATOM     15  C   UNL     1       8.158  -6.312  -0.017  0.00  0.00    +0.000 C 
BRANCH  15  16
ATOM     16  C   UNL     1       8.975  -6.439  -1.308  0.00  0.00    +0.000 A 
ATOM     17  C   UNL     1       9.256  -7.685  -1.809  0.00  0.00    +0.000 A 
ATOM     18  C   UNL     1      10.106  -7.899  -2.859  0.00  0.00    +0.000 A 
ATOM     19  C   UNL     1      10.517  -6.867  -3.643  0.00  0.00    +0.000 A 
ATOM     20 CL   UNL     1      11.381  -7.252  -5.070  0.00  0.00    +0.000 Cl
ATOM     21  C   UNL     1      10.172  -5.585  -3.260  0.00  0.00    +0.000 A 
ATOM     22  C   UNL     1       9.437  -5.366  -2.075  0.00  0.00    +0.000 A 
ENDBRANCH  15  16
BRANCH  15  23
ATOM     23  C   UNL     1       6.908  -5.494  -0.325  0.00  0.00    +0.000 A 
ATOM     24  C   UNL     1       5.992  -5.944  -1.300  0.00  0.00    +0.000 A 
ATOM     25  C   UNL     1       4.879  -5.207  -1.652  0.00  0.00    +0.000 A 
ATOM     26  C   UNL     1       4.685  -3.970  -1.062  0.00  0.00    +0.000 A 
ATOM     27  C   UNL     1       5.606  -3.476  -0.133  0.00  0.00    +0.000 A 
ATOM     28  C   UNL     1       6.707  -4.240   0.253  0.00  0.00    +0.000 A 
ENDBRANCH  15  23
ENDBRANCH   4  15
TORSDOF 9
