REMARK  Name = Levomenol
REMARK  9 active torsions:
REMARK  status: ('A' for Active; 'I' for Inactive)
REMARK    1  A    between atoms: C_2  and  C_9
REMARK    2  A    between atoms: C_5  and  C_6
REMARK    3  A    between atoms: C_9  and  C_10
REMARK    4  A    between atoms: C_9  and  O_11
REMARK    5  A    between atoms: C_9  and  C_12
REMARK    6  A    between atoms: C_12  and  C_13
REMARK    7  A    between atoms: C_13  and  C_14
REMARK    8  A    between atoms: C_15  and  C_16
REMARK    9  A    between atoms: C_15  and  C_17
REMARK                            x       y       z     vdW  Elec       q    Type
REMARK                         _______ _______ _______ _____ _____    ______ ____
ROOT
ATOM      1  C   UNL     1       0.483  -0.057  -0.057  0.00  0.00    +0.000 C 
ATOM      2  C   UNL     1      -0.015  -1.141   0.914  0.00  0.00    +0.000 C 
ENDROOT
BRANCH   1   3
ATOM      3  C   UNL     1       2.032  -0.044  -0.090  0.00  0.00    +0.000 C 
ATOM      4  C   UNL     1       2.585  -1.267  -0.840  0.00  0.00    +0.000 C 
ATOM      5  C   UNL     1       4.097  -1.313  -0.846  0.00  0.00    +0.000 C 
ATOM      6  C   UNL     1       4.732   0.021  -1.107  0.00  0.00    +0.000 C 
ATOM      7  C   UNL     1       6.185  -0.025  -1.452  0.00  0.00    +0.000 C 
ATOM      8  C   UNL     1       4.048   1.180  -1.038  0.00  0.00    +0.000 C 
ATOM      9  C   UNL     1       2.590   1.264  -0.693  0.00  0.00    +0.000 C 
ENDBRANCH   1   3
BRANCH   1  10
ATOM     10  O   UNL     1       0.046   1.210   0.449  0.00  0.00    +0.000 OA
ATOM     11  H   UNL     1      -0.923   1.216   0.502  0.00  0.00    +0.000 HD
ENDBRANCH   1  10
BRANCH   1  12
ATOM     12  C   UNL     1      -0.076  -0.279  -1.480  0.00  0.00    +0.000 C 
BRANCH  12  13
ATOM     13  C   UNL     1      -1.583  -0.270  -1.531  0.00  0.00    +0.000 C 
BRANCH  13  14
ATOM     14  C   UNL     1      -2.094  -0.519  -2.907  0.00  0.00    +0.000 C 
ATOM     15  C   UNL     1      -3.416  -0.577  -3.156  0.00  0.00    +0.000 C 
ATOM     16  C   UNL     1      -4.449  -0.392  -2.077  0.00  0.00    +0.000 C 
ATOM     17  C   UNL     1      -3.917  -0.828  -4.542  0.00  0.00    +0.000 C 
ENDBRANCH  13  14
ENDBRANCH  12  13
ENDBRANCH   1  12
TORSDOF 5
