REMARK  Name = Levonorgestrel
REMARK  4 active torsions:
REMARK  status: ('A' for Active; 'I' for Inactive)
REMARK    1  A    between atoms: C_5  and  O_6
REMARK    2  A    between atoms: C_5  and  C_7
REMARK    3  A    between atoms: C_9  and  C_10
REMARK    4  A    between atoms: C_10  and  C_11
REMARK                            x       y       z     vdW  Elec       q    Type
REMARK                         _______ _______ _______ _____ _____    ______ ____
ROOT
ATOM      1  C   UNL     1       1.744   0.044  -0.344  0.00  0.00    +0.000 C 
ATOM      2  C   UNL     1       2.217   0.178  -1.670  0.00  0.00    +0.000 C 
ATOM      3  C   UNL     1       3.204  -0.332  -0.685  0.00  0.00    +0.000 C 
ATOM      4  C   UNL     1       2.435  -0.848   1.187  0.00  0.00    +0.000 C 
ATOM      5  C   UNL     1       2.623  -1.605   0.071  0.00  0.00    +0.000 C 
ATOM      6  C   UNL     1       4.371  -1.635   0.600  0.00  0.00    +0.000 C 
ATOM      7  C   UNL     1       4.684  -0.236   1.365  0.00  0.00    +0.000 C 
ATOM      8  C   UNL     1       3.988   1.191   0.914  0.00  0.00    +0.000 C 
ATOM      9  C   UNL     1       4.398   2.298   1.774  0.00  0.00    +0.000 C 
ATOM     10  C   UNL     1       5.769   2.057   1.902  0.00  0.00    +0.000 C 
ATOM     11  C   UNL     1       6.961   1.511   2.376  0.00  0.00    +0.000 C 
ATOM     12  C   UNL     1       7.460   2.859   1.470  0.00  0.00    +0.000 C 
ATOM     13  O   UNL     1       8.606   2.882   1.179  0.00  0.00    +0.000 OA
ATOM     14  C   UNL     1       6.022   3.941   0.748  0.00  0.00    +0.000 C 
ATOM     15  C   UNL     1       4.620   3.572   0.915  0.00  0.00    +0.000 C 
ATOM     16  C   UNL     1       3.070   3.897   0.580  0.00  0.00    +0.000 C 
ATOM     17  C   UNL     1       2.219   2.721  -0.039  0.00  0.00    +0.000 C 
ATOM     18  C   UNL     1       2.450   1.380   0.642  0.00  0.00    +0.000 C 
ENDROOT
BRANCH   4  19
ATOM     19  O   UNL     1       2.727  -1.906   2.175  0.00  0.00    +0.000 OA
ATOM     20  H   UNL     1       3.588  -2.005   2.599  0.00  0.00    +0.000 HD
ENDBRANCH   4  19
BRANCH   4  21
ATOM     21  C   UNL     1       0.885  -0.893   1.576  0.00  0.00    +0.000 C 
ATOM     22  C   UNL     1      -0.256  -1.064   1.875  0.00  0.00    +0.000 C 
ENDBRANCH   4  21
BRANCH   5  23
ATOM     23  C   UNL     1       2.025  -2.880  -0.319  0.00  0.00    +0.000 C 
ATOM     24  C   UNL     1       2.547  -3.038  -1.722  0.00  0.00    +0.000 C 
ENDBRANCH   5  23
TORSDOF 3
