REMARK  Name = Levocabastine
REMARK  7 active torsions:
REMARK  status: ('A' for Active; 'I' for Inactive)
REMARK    1  A    between atoms: C_1  and  C_2
REMARK    2  A    between atoms: N_4  and  C_17
REMARK    3  A    between atoms: C_7  and  C_8
REMARK    4  A    between atoms: C_7  and  C_11
REMARK    5  A    between atoms: C_8  and  O_9
REMARK    6  A    between atoms: C_20  and  C_23
REMARK    7  A    between atoms: C_20  and  C_25
REMARK                            x       y       z     vdW  Elec       q    Type
REMARK                         _______ _______ _______ _____ _____    ______ ____
ROOT
ATOM      1  C   UNL     1       1.542   4.903   0.442  0.00  0.00    +0.000 C 
ATOM      2  C   UNL     1       2.388   3.726   0.958  0.00  0.00    +0.000 C 
ATOM      3  C   UNL     1       1.496   2.485   0.830  0.00  0.00    +0.000 C 
ATOM      4  N   UNL     1       0.418   2.444   1.841  0.00  0.00    +0.000 NA
ATOM      5  C   UNL     1       0.933   2.552   3.218  0.00  0.00    +0.000 C 
ATOM      6  C   UNL     1       1.807   3.762   3.432  0.00  0.00    +0.000 C 
ATOM      7  C   UNL     1       2.985   3.821   2.419  0.00  0.00    +0.000 C 
ENDROOT
BRANCH   7   8
ATOM      8  C   UNL     1       3.673   5.189   2.640  0.00  0.00    +0.000 A 
ATOM      9  C   UNL     1       5.029   5.344   2.899  0.00  0.00    +0.000 A 
ATOM     10  C   UNL     1       5.560   6.515   3.413  0.00  0.00    +0.000 A 
ATOM     11  C   UNL     1       4.844   7.684   3.268  0.00  0.00    +0.000 A 
ATOM     12  C   UNL     1       3.538   7.630   2.814  0.00  0.00    +0.000 A 
ATOM     13  C   UNL     1       2.938   6.392   2.604  0.00  0.00    +0.000 A 
ENDBRANCH   7   8
BRANCH   4  14
ATOM     14  C   UNL     1      -0.365   1.202   1.679  0.00  0.00    +0.000 C 
ATOM     15  C   UNL     1       0.532  -0.026   1.890  0.00  0.00    +0.000 C 
ATOM     16  C   UNL     1      -0.209  -1.316   1.927  0.00  0.00    +0.000 C 
ATOM     17  C   UNL     1      -1.416  -1.339   2.874  0.00  0.00    +0.000 C 
ATOM     18  C   UNL     1      -2.344  -0.132   2.538  0.00  0.00    +0.000 C 
ATOM     19  C   UNL     1      -1.583   1.188   2.618  0.00  0.00    +0.000 C 
BRANCH  17  20
ATOM     20  C   UNL     1      -2.145  -2.663   2.651  0.00  0.00    +0.000 A 
ATOM     21  C   UNL     1      -1.669  -3.631   1.738  0.00  0.00    +0.000 A 
ATOM     22  C   UNL     1      -2.429  -4.736   1.408  0.00  0.00    +0.000 A 
ATOM     23  C   UNL     1      -3.597  -4.969   2.107  0.00  0.00    +0.000 A 
ATOM     24  F   UNL     1      -4.275  -6.097   1.873  0.00  0.00    +0.000 F 
ATOM     25  C   UNL     1      -4.057  -4.074   3.066  0.00  0.00    +0.000 A 
ATOM     26  C   UNL     1      -3.339  -2.915   3.334  0.00  0.00    +0.000 A 
ENDBRANCH  17  20
BRANCH  17  27
ATOM     27  C   UNL     1      -1.002  -1.224   4.298  0.00  0.00    +0.000 C 
ATOM     28  N   UNL     1      -0.750  -1.068   5.430  0.00  0.00    +0.000 NA
ENDBRANCH  17  27
ENDBRANCH   4  14
BRANCH   7  29
ATOM     29  C   UNL     1       3.869   2.496   2.659  0.00  0.00    +0.000 C 
ATOM     30  O   UNL     1       3.442   1.353   2.521  0.00  0.00    +0.000 OA
BRANCH  29  31
ATOM     31  O   UNL     1       5.159   2.545   3.021  0.00  0.00    +0.000 OA
ATOM     32  H   UNL     1       5.445   3.265   3.597  0.00  0.00    +0.000 HD
ENDBRANCH  29  31
ENDBRANCH   7  29
TORSDOF 6
