REMARK  Name = Levobunolol
REMARK  10 active torsions:
REMARK  status: ('A' for Active; 'I' for Inactive)
REMARK    1  A    between atoms: C_1  and  C_2
REMARK    2  A    between atoms: C_2  and  C_3
REMARK    3  A    between atoms: C_2  and  C_4
REMARK    4  A    between atoms: C_2  and  N_5
REMARK    5  A    between atoms: N_5  and  C_6
REMARK    6  A    between atoms: C_6  and  C_7
REMARK    7  A    between atoms: C_7  and  O_8
REMARK    8  A    between atoms: C_7  and  C_9
REMARK    9  A    between atoms: C_9  and  O_10
REMARK   10  A    between atoms: O_10  and  C_11
REMARK                            x       y       z     vdW  Elec       q    Type
REMARK                         _______ _______ _______ _____ _____    ______ ____
ROOT
ATOM      1  O   UNL     1       7.017   3.830   1.517  0.00  0.00    +0.000 OA
ENDROOT
BRANCH   1   2
ATOM      2  C   UNL     1       8.387   3.946   1.562  0.00  0.00    +0.000 A 
ATOM      3  C   UNL     1       8.890   4.547   2.728  0.00  0.00    +0.000 A 
ATOM      4  C   UNL     1      10.258   4.800   2.872  0.00  0.00    +0.000 A 
ATOM      5  C   UNL     1      11.131   4.493   1.832  0.00  0.00    +0.000 A 
ATOM      6  C   UNL     1      10.632   3.940   0.648  0.00  0.00    +0.000 A 
ATOM      7  C   UNL     1       9.264   3.630   0.507  0.00  0.00    +0.000 A 
ATOM      8  C   UNL     1       8.781   3.033  -0.784  0.00  0.00    +0.000 C 
ATOM      9  C   UNL     1       9.850   2.445  -1.667  0.00  0.00    +0.000 C 
ATOM     10  C   UNL     1      10.957   3.441  -1.845  0.00  0.00    +0.000 C 
ATOM     11  C   UNL     1      11.573   3.727  -0.494  0.00  0.00    +0.000 C 
ATOM     12  O   UNL     1      12.780   3.834  -0.344  0.00  0.00    +0.000 OA
ENDBRANCH   1   2
BRANCH   1  13
ATOM     13  C   UNL     1       6.494   2.598   1.020  0.00  0.00    +0.000 C 
BRANCH  13  14
ATOM     14  C   UNL     1       4.977   2.547   1.007  0.00  0.00    +0.000 C 
BRANCH  14  15
ATOM     15  O   UNL     1       4.551   1.287   0.467  0.00  0.00    +0.000 OA
ATOM     16  H   UNL     1       4.842   0.583   1.072  0.00  0.00    +0.000 HD
ENDBRANCH  14  15
BRANCH  14  17
ATOM     17  C   UNL     1       4.438   2.728   2.404  0.00  0.00    +0.000 C 
BRANCH  17  18
ATOM     18  N   UNL     1       4.460   4.133   2.807  0.00  0.00    +0.000 NA
ATOM     19  H   UNL     1       5.401   4.518   2.667  0.00  0.00    +0.000 HD
BRANCH  18  21
ATOM     20  C   UNL     1       4.043   5.846   4.472  0.00  0.00    +0.000 C 
ATOM     21  C   UNL     1       4.019   4.337   4.189  0.00  0.00    +0.000 C 
ATOM     22  C   UNL     1       4.969   3.634   5.171  0.00  0.00    +0.000 C 
ATOM     23  C   UNL     1       2.580   3.825   4.348  0.00  0.00    +0.000 C 
ENDBRANCH  18  21
ENDBRANCH  17  18
ENDBRANCH  14  17
ENDBRANCH  13  14
ENDBRANCH   1  13
TORSDOF 7
