REMARK  Name = Levoketoconazole
REMARK  8 active torsions:
REMARK  status: ('A' for Active; 'I' for Inactive)
REMARK    1  A    between atoms: C_1  and  C_2
REMARK    2  A    between atoms: N_7  and  C_10
REMARK    3  A    between atoms: C_13  and  O_14
REMARK    4  A    between atoms: O_14  and  C_15
REMARK    5  A    between atoms: C_15  and  C_16
REMARK    6  A    between atoms: C_19  and  C_20
REMARK    7  A    between atoms: C_19  and  C_27
REMARK    8  A    between atoms: C_20  and  N_21
REMARK                            x       y       z     vdW  Elec       q    Type
REMARK                         _______ _______ _______ _____ _____    ______ ____
ROOT
ATOM      1  C   UNL     1       8.223   0.147 -10.435  0.00  0.00    +0.000 C 
ATOM      2  C   UNL     1       7.554   0.982 -11.544  0.00  0.00    +0.000 C 
ATOM      3  O   UNL     1       6.568   0.150 -12.179  0.00  0.00    +0.000 OA
ATOM      4  C   UNL     1       6.793  -1.170 -11.688  0.00  0.00    +0.000 C 
ATOM      5  O   UNL     1       7.977  -1.200 -10.865  0.00  0.00    +0.000 OA
ENDROOT
BRANCH   4   6
ATOM      6  C   UNL     1       6.907  -2.217 -12.809  0.00  0.00    +0.000 A 
ATOM      7  C   UNL     1       6.128  -3.420 -12.776  0.00  0.00    +0.000 A 
ATOM      8  C   UNL     1       6.237  -4.414 -13.735  0.00  0.00    +0.000 A 
ATOM      9  C   UNL     1       7.087  -4.207 -14.800  0.00  0.00    +0.000 A 
ATOM     10 CL   UNL     1       7.160  -5.374 -16.053  0.00  0.00    +0.000 Cl
ATOM     11  C   UNL     1       7.857  -3.051 -14.876  0.00  0.00    +0.000 A 
ATOM     12  C   UNL     1       7.782  -2.067 -13.887  0.00  0.00    +0.000 A 
ATOM     13 CL   UNL     1       8.818  -0.709 -14.109  0.00  0.00    +0.000 Cl
ENDBRANCH   4   6
BRANCH   1  14
ATOM     14  C   UNL     1       7.835   0.421  -8.909  0.00  0.00    +0.000 C 
BRANCH  14  15
ATOM     15  O   UNL     1       7.690  -0.773  -8.055  0.00  0.00    +0.000 OA
BRANCH  15  19
ATOM     16  C   UNL     1       4.789  -0.721  -4.920  0.00  0.00    +0.000 A 
ATOM     17  C   UNL     1       5.189  -1.892  -5.575  0.00  0.00    +0.000 A 
ATOM     18  C   UNL     1       6.317  -1.930  -6.434  0.00  0.00    +0.000 A 
ATOM     19  C   UNL     1       6.943  -0.730  -6.866  0.00  0.00    +0.000 A 
ATOM     20  C   UNL     1       6.536   0.446  -6.230  0.00  0.00    +0.000 A 
ATOM     21  C   UNL     1       5.467   0.448  -5.279  0.00  0.00    +0.000 A 
BRANCH  16  28
ATOM     22  C   UNL     1       1.153   0.135  -0.062  0.00  0.00    +0.000 C 
ATOM     23  C   UNL     1       2.656   0.074  -0.068  0.00  0.00    +0.000 C 
ATOM     24  O   UNL     1       3.284  -0.131   1.000  0.00  0.00    +0.000 OA
ATOM     25  N   UNL     1       3.279   0.079  -1.288  0.00  0.00    +0.000 N 
ATOM     26  C   UNL     1       4.456  -0.754  -1.535  0.00  0.00    +0.000 C 
ATOM     27  C   UNL     1       4.212  -1.639  -2.777  0.00  0.00    +0.000 C 
ATOM     28  N   UNL     1       3.806  -0.827  -3.949  0.00  0.00    +0.000 N 
ATOM     29  C   UNL     1       2.716   0.134  -3.709  0.00  0.00    +0.000 C 
ATOM     30  C   UNL     1       2.928   0.946  -2.420  0.00  0.00    +0.000 C 
ENDBRANCH  16  28
ENDBRANCH  15  19
ENDBRANCH  14  15
ENDBRANCH   1  14
BRANCH   4  31
ATOM     31  C   UNL     1       5.590  -1.588 -10.864  0.00  0.00    +0.000 C 
BRANCH  31  32
ATOM     32  N   UNL     1       5.055  -0.678  -9.911  0.00  0.00    +0.000 N 
ATOM     33  C   UNL     1       4.773   0.648  -9.922  0.00  0.00    +0.000 A 
ATOM     34  C   UNL     1       4.496   0.921  -8.604  0.00  0.00    +0.000 A 
ATOM     35  N   UNL     1       4.271  -0.236  -7.924  0.00  0.00    +0.000 NA
ATOM     36  C   UNL     1       4.761  -1.165  -8.693  0.00  0.00    +0.000 A 
ENDBRANCH  31  32
ENDBRANCH   4  31
TORSDOF 7
