REMARK  Name = Levocarnitine
REMARK  8 active torsions:
REMARK  status: ('A' for Active; 'I' for Inactive)
REMARK    1  A    between atoms: C_1  and  N_2
REMARK    2  A    between atoms: N_2  and  C_3
REMARK    3  A    between atoms: N_2  and  C_4
REMARK    4  A    between atoms: N_2  and  C_5
REMARK    5  A    between atoms: C_5  and  C_6
REMARK    6  A    between atoms: C_6  and  O_7
REMARK    7  A    between atoms: C_6  and  C_8
REMARK    8  A    between atoms: C_8  and  C_9
REMARK                            x       y       z     vdW  Elec       q    Type
REMARK                         _______ _______ _______ _____ _____    ______ ____
ROOT
ATOM      1  C   UNL     1       4.528  -0.719  -1.190  0.00  0.00    +0.000 C 
ENDROOT
BRANCH   1   2
ATOM      2  O   UNL     1       3.091  -0.740  -1.302  0.00  0.00    +0.000 OA
ATOM      3  H   UNL     1       2.809  -1.670  -1.320  0.00  0.00    +0.000 HD
ENDBRANCH   1   2
BRANCH   1   4
ATOM      4  C   UNL     1       4.978  -1.368   0.147  0.00  0.00    +0.000 C 
BRANCH   4   6
ATOM      5  C   UNL     1       2.956  -0.588   1.467  0.00  0.00    +0.000 C 
ATOM      6  N   UNL     1       4.466  -0.601   1.400  0.00  0.00    +0.000 N 
ATOM      7  C   UNL     1       5.012   0.819   1.366  0.00  0.00    +0.000 C 
ATOM      8  C   UNL     1       5.018  -1.312   2.623  0.00  0.00    +0.000 C 
ENDBRANCH   4   6
ENDBRANCH   1   4
BRANCH   1   9
ATOM      9  C   UNL     1       5.092  -1.444  -2.391  0.00  0.00    +0.000 C 
BRANCH   9  10
ATOM     10  C   UNL     1       6.615  -1.389  -2.403  0.00  0.00    +0.000 C 
ATOM     11  O   UNL     1       7.143  -0.707  -1.474  0.00  0.00    +0.000 OA
ATOM     12  O   UNL     1       7.151  -2.079  -3.298  0.00  0.00    +0.000 OA
ENDBRANCH   9  10
ENDBRANCH   1   9
TORSDOF 5
