REMARK  Name = Levodopa
REMARK  7 active torsions:
REMARK  status: ('A' for Active; 'I' for Inactive)
REMARK    1  A    between atoms: N_1  and  CA_2
REMARK    2  A    between atoms: CA_2  and  C_3
REMARK    3  A    between atoms: CA_2  and  C_12
REMARK    4  A    between atoms: C_3  and  C_4
REMARK    5  A    between atoms: C_6  and  O_7
REMARK    6  A    between atoms: C_8  and  O_9
REMARK    7  A    between atoms: C_12  and  O_13
REMARK                            x       y       z     vdW  Elec       q    Type
REMARK                         _______ _______ _______ _____ _____    ______ ____
ROOT
ATOM      1  C   UNL     1       2.452   0.032  -2.606  0.00  0.00    +0.000 A 
ATOM      2  C   UNL     1       1.944   0.743  -3.711  0.00  0.00    +0.000 A 
ATOM      3  C   UNL     1       1.634   0.059  -4.892  0.00  0.00    +0.000 A 
ATOM      4  C   UNL     1       1.819  -1.319  -4.977  0.00  0.00    +0.000 A 
ATOM      5  C   UNL     1       2.295  -2.034  -3.892  0.00  0.00    +0.000 A 
ATOM      6  C   UNL     1       2.619  -1.360  -2.717  0.00  0.00    +0.000 A 
ENDROOT
BRANCH   3   7
ATOM      7  O   UNL     1       1.150   0.698  -6.002  0.00  0.00    +0.000 OA
ATOM      8  H   UNL     1       1.076   1.648  -5.811  0.00  0.00    +0.000 HD
ENDBRANCH   3   7
BRANCH   4   9
ATOM      9  O   UNL     1       1.553  -2.003  -6.128  0.00  0.00    +0.000 OA
ATOM     10  H   UNL     1       1.273  -1.326  -6.774  0.00  0.00    +0.000 HD
ENDBRANCH   4   9
BRANCH   1  11
ATOM     11  C   UNL     1       2.883   0.737  -1.330  0.00  0.00    +0.000 C 
BRANCH  11  12
ATOM     12  CA  UNL     1       2.372   0.071  -0.033  0.00  0.00    +0.000 C 
BRANCH  12  13
ATOM     13  N   UNL     1       0.879   0.090   0.036  0.00  0.00    +0.000 NA
ATOM     14  H1  UNL     1       0.557  -0.464  -0.771  0.00  0.00    +0.000 HD
ATOM     15  H2  UNL     1       0.550   1.030  -0.199  0.00  0.00    +0.000 HD
ENDBRANCH  12  13
BRANCH  12  16
ATOM     16  C   UNL     1       2.973   0.770   1.193  0.00  0.00    +0.000 C 
ATOM     17  OXT UNL     1       4.177   0.901   1.386  0.00  0.00    +0.000 OA
BRANCH  16  18
ATOM     18  O   UNL     1       2.041   1.236   2.060  0.00  0.00    +0.000 OA
ATOM     19  H   UNL     1       1.156   0.926   1.759  0.00  0.00    +0.000 HD
ENDBRANCH  16  18
ENDBRANCH  12  16
ENDBRANCH  11  12
ENDBRANCH   1  11
TORSDOF 7
