REMARK  Name = Levomenthol
REMARK  5 active torsions:
REMARK  status: ('A' for Active; 'I' for Inactive)
REMARK    1  A    between atoms: C_1  and  C_2
REMARK    2  A    between atoms: C_2  and  C_3
REMARK    3  A    between atoms: C_2  and  C_4
REMARK    4  A    between atoms: C_7  and  C_8
REMARK    5  A    between atoms: C_10  and  O_11
REMARK                            x       y       z     vdW  Elec       q    Type
REMARK                         _______ _______ _______ _____ _____    ______ ____
ROOT
ATOM      1  C   UNL     1       3.038   1.414   0.114  0.00  0.00    +0.000 C 
ATOM      2  C   UNL     1       3.646   1.655   1.508  0.00  0.00    +0.000 C 
ATOM      3  C   UNL     1       4.278   3.037   1.633  0.00  0.00    +0.000 C 
ATOM      4  C   UNL     1       3.282   4.147   1.285  0.00  0.00    +0.000 C 
ATOM      5  C   UNL     1       3.951   5.515   1.371  0.00  0.00    +0.000 C 
ATOM      6  C   UNL     1       2.689   3.923  -0.108  0.00  0.00    +0.000 C 
ATOM      7  C   UNL     1       2.042   2.543  -0.227  0.00  0.00    +0.000 C 
ENDROOT
BRANCH   1   9
ATOM      8  C   UNL     1       0.940  -0.126   0.109  0.00  0.00    +0.000 C 
ATOM      9  C   UNL     1       2.465  -0.036   0.048  0.00  0.00    +0.000 C 
ATOM     10  C   UNL     1       2.991  -0.770  -1.189  0.00  0.00    +0.000 C 
ENDBRANCH   1   9
BRANCH   7  11
ATOM     11  O   UNL     1       1.537   2.400  -1.552  0.00  0.00    +0.000 OA
ATOM     12  H   UNL     1       2.289   2.358  -2.160  0.00  0.00    +0.000 HD
ENDBRANCH   7  11
TORSDOF 2
