REMARK  Name = Levomilnacipran
REMARK  8 active torsions:
REMARK  status: ('A' for Active; 'I' for Inactive)
REMARK    1  A    between atoms: C_1  and  C_2
REMARK    2  A    between atoms: C_2  and  N_3
REMARK    3  A    between atoms: N_3  and  C_4
REMARK    4  A    between atoms: C_4  and  C_5
REMARK    5  A    between atoms: C_6  and  C_8
REMARK    6  A    between atoms: C_8  and  C_13
REMARK    7  A    between atoms: C_10  and  C_11
REMARK    8  A    between atoms: C_11  and  N_12
REMARK                            x       y       z     vdW  Elec       q    Type
REMARK                         _______ _______ _______ _____ _____    ______ ____
ROOT
ATOM      1  C   UNL     1       4.922   2.317  -1.842  0.00  0.00    +0.000 C 
ATOM      2  C   UNL     1       4.169   3.474  -2.536  0.00  0.00    +0.000 C 
ATOM      3  C   UNL     1       5.260   3.787  -1.580  0.00  0.00    +0.000 C 
ENDROOT
BRANCH   1   4
ATOM      4  C   UNL     1       6.006   1.521  -2.606  0.00  0.00    +0.000 A 
ATOM      5  C   UNL     1       5.732   0.967  -3.860  0.00  0.00    +0.000 A 
ATOM      6  C   UNL     1       6.485  -0.105  -4.343  0.00  0.00    +0.000 A 
ATOM      7  C   UNL     1       7.580  -0.586  -3.625  0.00  0.00    +0.000 A 
ATOM      8  C   UNL     1       7.921  -0.001  -2.413  0.00  0.00    +0.000 A 
ATOM      9  C   UNL     1       7.158   1.059  -1.924  0.00  0.00    +0.000 A 
ENDBRANCH   1   4
BRANCH   1  11
ATOM     10  N   UNL     1       2.936   1.101  -0.759  0.00  0.00    +0.000 N 
ATOM     11  C   UNL     1       4.317   1.389  -0.775  0.00  0.00    +0.000 C 
ATOM     12  O   UNL     1       5.075   0.791  -0.028  0.00  0.00    +0.000 OA
BRANCH  10  14
ATOM     13  C   UNL     1       1.117  -0.329   0.331  0.00  0.00    +0.000 C 
ATOM     14  C   UNL     1       2.576  -0.029   0.106  0.00  0.00    +0.000 C 
ENDBRANCH  10  14
BRANCH  10  15
ATOM     15  C   UNL     1       2.013   1.934  -1.500  0.00  0.00    +0.000 C 
ATOM     16  C   UNL     1       0.518   1.800  -1.435  0.00  0.00    +0.000 C 
ENDBRANCH  10  15
ENDBRANCH   1  11
BRANCH   3  17
ATOM     17  C   UNL     1       5.100   4.468  -0.251  0.00  0.00    +0.000 C 
BRANCH  17  18
ATOM     18  N   UNL     1       6.412   5.101  -0.088  0.00  0.00    +0.000 NA
ATOM     19  H   UNL     1       6.545   5.742  -0.874  0.00  0.00    +0.000 HD
ATOM     20  H   UNL     1       7.113   4.368  -0.233  0.00  0.00    +0.000 HD
ENDBRANCH  17  18
ENDBRANCH   3  17
TORSDOF 6
