REMARK  Name = Levosimendan
REMARK  6 active torsions:
REMARK  status: ('A' for Active; 'I' for Inactive)
REMARK    1  A    between atoms: C_1  and  C_2
REMARK    2  A    between atoms: C_8  and  C_9
REMARK    3  A    between atoms: C_12  and  N_13
REMARK    4  A    between atoms: N_13  and  N_14
REMARK    5  A    between atoms: C_15  and  C_16
REMARK    6  A    between atoms: C_15  and  C_18
REMARK                            x       y       z     vdW  Elec       q    Type
REMARK                         _______ _______ _______ _____ _____    ______ ____
ROOT
ATOM      1  C   UNL     1      -2.927   1.283  -0.478  0.00  0.00    +0.000 A 
ATOM      2  C   UNL     1      -3.178   2.296  -1.402  0.00  0.00    +0.000 A 
ATOM      3  C   UNL     1      -4.458   2.882  -1.467  0.00  0.00    +0.000 A 
ATOM      4  C   UNL     1      -5.531   2.403  -0.692  0.00  0.00    +0.000 A 
ATOM      5  C   UNL     1      -5.255   1.392   0.229  0.00  0.00    +0.000 A 
ATOM      6  C   UNL     1      -3.970   0.847   0.340  0.00  0.00    +0.000 A 
ENDROOT
BRANCH   1  14
ATOM      7  C   UNL     1      -1.560  -1.466   0.904  0.00  0.00    +0.000 C 
ATOM      8  C   UNL     1      -1.297  -0.732  -0.410  0.00  0.00    +0.000 C 
ATOM      9  C   UNL     1       0.141  -0.978  -0.855  0.00  0.00    +0.000 C 
ATOM     10  C   UNL     1       1.111  -0.130  -0.080  0.00  0.00    +0.000 C 
ATOM     11  O   UNL     1       2.257  -0.496   0.167  0.00  0.00    +0.000 OA
ATOM     12  N   UNL     1       0.657   1.119   0.258  0.00  0.00    +0.000 N 
ATOM     13  N   UNL     1      -0.601   1.606   0.045  0.00  0.00    +0.000 NA
ATOM     14  C   UNL     1      -1.539   0.765  -0.279  0.00  0.00    +0.000 C 
ATOM     15  H   UNL     1       1.324   1.750   0.692  0.00  0.00    +0.000 HD
ENDBRANCH   1  14
BRANCH   4  16
ATOM     16  N   UNL     1      -6.819   2.965  -0.828  0.00  0.00    +0.000 N 
ATOM     17  H   UNL     1      -6.918   3.617  -1.607  0.00  0.00    +0.000 HD
BRANCH  16  18
ATOM     18  N   UNL     1      -7.886   2.419  -0.155  0.00  0.00    +0.000 NA
ATOM     19  C   UNL     1      -9.092   2.861  -0.376  0.00  0.00    +0.000 C 
BRANCH  19  20
ATOM     20  C   UNL     1      -9.351   3.885  -1.342  0.00  0.00    +0.000 C 
ATOM     21  N   UNL     1      -9.535   4.715  -2.141  0.00  0.00    +0.000 NA
ENDBRANCH  19  20
BRANCH  19  22
ATOM     22  C   UNL     1     -10.141   2.271   0.413  0.00  0.00    +0.000 C 
ATOM     23  N   UNL     1     -11.030   1.841   1.026  0.00  0.00    +0.000 NA
ENDBRANCH  19  22
ENDBRANCH  16  18
ENDBRANCH   4  16
TORSDOF 5
