REMARK  Name = Levosalbutamol
REMARK  11 active torsions:
REMARK  status: ('A' for Active; 'I' for Inactive)
REMARK    1  A    between atoms: C_1  and  C_2
REMARK    2  A    between atoms: C_2  and  C_3
REMARK    3  A    between atoms: C_2  and  C_4
REMARK    4  A    between atoms: C_2  and  N_5
REMARK    5  A    between atoms: N_5  and  C_6
REMARK    6  A    between atoms: C_6  and  C_7
REMARK    7  A    between atoms: C_7  and  O_8
REMARK    8  A    between atoms: C_7  and  C_9
REMARK    9  A    between atoms: C_11  and  C_12
REMARK   10  A    between atoms: C_12  and  O_13
REMARK   11  A    between atoms: C_14  and  O_15
REMARK                            x       y       z     vdW  Elec       q    Type
REMARK                         _______ _______ _______ _____ _____    ______ ____
ROOT
ATOM      1  C   UNL     1       6.560   1.423  -2.290  0.00  0.00    +0.000 A 
ATOM      2  C   UNL     1       7.310   2.224  -1.425  0.00  0.00    +0.000 A 
ATOM      3  C   UNL     1       8.712   2.213  -1.451  0.00  0.00    +0.000 A 
ATOM      4  C   UNL     1       9.338   1.349  -2.349  0.00  0.00    +0.000 A 
ATOM      5  C   UNL     1       8.612   0.528  -3.205  0.00  0.00    +0.000 A 
ATOM      6  C   UNL     1       7.219   0.569  -3.178  0.00  0.00    +0.000 A 
ENDROOT
BRANCH   4   7
ATOM      7  O   UNL     1      10.700   1.255  -2.445  0.00  0.00    +0.000 OA
ATOM      8  H   UNL     1      11.065   2.055  -2.019  0.00  0.00    +0.000 HD
ENDBRANCH   4   7
BRANCH   1   9
ATOM      9  C   UNL     1       5.061   1.430  -2.248  0.00  0.00    +0.000 C 
BRANCH   9  10
ATOM     10  O   UNL     1       4.600   0.699  -1.112  0.00  0.00    +0.000 OA
ATOM     11  H   UNL     1       4.910   1.164  -0.321  0.00  0.00    +0.000 HD
ENDBRANCH   9  10
BRANCH   9  12
ATOM     12  C   UNL     1       4.348   2.795  -2.358  0.00  0.00    +0.000 C 
BRANCH  12  13
ATOM     13  N   UNL     1       4.660   3.999  -1.549  0.00  0.00    +0.000 NA
ATOM     14  H   UNL     1       4.906   3.766  -0.591  0.00  0.00    +0.000 HD
BRANCH  13  16
ATOM     15  C   UNL     1       3.901   6.247  -0.815  0.00  0.00    +0.000 C 
ATOM     16  C   UNL     1       3.509   4.943  -1.537  0.00  0.00    +0.000 C 
ATOM     17  C   UNL     1       2.338   4.318  -0.749  0.00  0.00    +0.000 C 
ATOM     18  C   UNL     1       3.069   5.310  -2.968  0.00  0.00    +0.000 C 
ENDBRANCH  13  16
ENDBRANCH  12  13
ENDBRANCH   9  12
ENDBRANCH   1   9
BRANCH   3  19
ATOM     19  C   UNL     1       9.408   3.153  -0.507  0.00  0.00    +0.000 C 
BRANCH  19  20
ATOM     20  O   UNL     1      10.818   2.974  -0.546  0.00  0.00    +0.000 OA
ATOM     21  H   UNL     1      10.980   2.147  -0.052  0.00  0.00    +0.000 HD
ENDBRANCH  19  20
ENDBRANCH   3  19
TORSDOF 8
