REMARK  Name = Levofloxacin
REMARK  5 active torsions:
REMARK  status: ('A' for Active; 'I' for Inactive)
REMARK    1  A    between atoms: C_1  and  C_2
REMARK    2  A    between atoms: C_9  and  C_10
REMARK    3  A    between atoms: C_10  and  O_11
REMARK    4  A    between atoms: C_19  and  N_20
REMARK    5  A    between atoms: N_23  and  C_24
REMARK                            x       y       z     vdW  Elec       q    Type
REMARK                         _______ _______ _______ _____ _____    ______ ____
ROOT
ATOM      1  C   UNL     1       3.094   0.545  -1.381  0.00  0.00    +0.000 C 
ATOM      2  C   UNL     1       2.745   0.267   0.083  0.00  0.00    +0.000 C 
ATOM      3  C   UNL     1       2.432   1.546   0.851  0.00  0.00    +0.000 C 
ATOM      4  O   UNL     1       1.313   2.219   0.282  0.00  0.00    +0.000 OA
ATOM      5  C   UNL     1       0.191   1.415   0.167  0.00  0.00    +0.000 A 
ATOM      6  C   UNL     1       0.319   0.007   0.140  0.00  0.00    +0.000 A 
ATOM      7  N   UNL     1       1.580  -0.628   0.161  0.00  0.00    +0.000 N 
ATOM      8  C   UNL     1       1.664  -2.003   0.145  0.00  0.00    +0.000 A 
ATOM      9  C   UNL     1       0.637  -2.869   0.111  0.00  0.00    +0.000 A 
ATOM     10  C   UNL     1      -0.730  -2.250   0.038  0.00  0.00    +0.000 A 
ATOM     11  O   UNL     1      -1.759  -2.912  -0.046  0.00  0.00    +0.000 OA
ATOM     12  C   UNL     1      -0.844  -0.767   0.064  0.00  0.00    +0.000 A 
ATOM     13  C   UNL     1      -2.100  -0.155   0.004  0.00  0.00    +0.000 A 
ATOM     14  C   UNL     1      -2.197   1.238  -0.001  0.00  0.00    +0.000 A 
ATOM     15  F   UNL     1      -3.418   1.780  -0.139  0.00  0.00    +0.000 F 
ATOM     16  C   UNL     1      -1.062   2.068   0.036  0.00  0.00    +0.000 A 
ENDROOT
BRANCH  16  17
ATOM     17  N   UNL     1      -1.184   3.433  -0.230  0.00  0.00    +0.000 N 
ATOM     18  C   UNL     1      -1.857   4.366   0.694  0.00  0.00    +0.000 C 
ATOM     19  C   UNL     1      -2.323   5.627  -0.097  0.00  0.00    +0.000 C 
ATOM     20  N   UNL     1      -1.203   6.264  -0.837  0.00  0.00    +0.000 NA
ATOM     21  C   UNL     1      -1.636   7.453  -1.557  0.00  0.00    +0.000 C 
ATOM     22  C   UNL     1      -0.672   5.268  -1.789  0.00  0.00    +0.000 C 
ATOM     23  C   UNL     1      -0.130   4.041  -1.053  0.00  0.00    +0.000 C 
ENDBRANCH  16  17
BRANCH   9  24
ATOM     24  C   UNL     1       0.819  -4.342   0.141  0.00  0.00    +0.000 C 
ATOM     25  O   UNL     1      -0.105  -5.143   0.114  0.00  0.00    +0.000 OA
BRANCH  24  26
ATOM     26  O   UNL     1       2.090  -4.800   0.217  0.00  0.00    +0.000 OA
ATOM     27  H   UNL     1       2.829  -4.176   0.250  0.00  0.00    +0.000 HD
ENDBRANCH  24  26
ENDBRANCH   9  24
TORSDOF 3
