REMARK  Name = Levomefolic acid
REMARK  12 active torsions:
REMARK  status: ('A' for Active; 'I' for Inactive)
REMARK    1  A    between atoms: C_1  and  N_2
REMARK    2  A    between atoms: C_3  and  C_4
REMARK    3  A    between atoms: C_4  and  N_5
REMARK    4  A    between atoms: N_5  and  C_6
REMARK    5  A    between atoms: C_9  and  C_12
REMARK    6  A    between atoms: N_14  and  CA_15
REMARK    7  A    between atoms: CA_15  and  CB_16
REMARK    8  A    between atoms: CA_15  and  C_21
REMARK    9  A    between atoms: CB_16  and  CG_17
REMARK   10  A    between atoms: CG_17  and  CD_18
REMARK   11  A    between atoms: CD_18  and  OE1_19
REMARK   12  A    between atoms: C_21  and  O_22
REMARK                            x       y       z     vdW  Elec       q    Type
REMARK                         _______ _______ _______ _____ _____    ______ ____
ROOT
ATOM      1  C   UNK A   0       4.584   0.436  -3.364  0.00  0.00    +0.000 A 
ATOM      2  C   UNK A   0       5.336   1.612  -3.439  0.00  0.00    +0.000 A 
ATOM      3  C   UNK A   0       5.914   1.995  -4.642  0.00  0.00    +0.000 A 
ATOM      4  C   UNK A   0       5.692   1.224  -5.789  0.00  0.00    +0.000 A 
ATOM      5  C   UNK A   0       4.967   0.033  -5.704  0.00  0.00    +0.000 A 
ATOM      6  C   UNK A   0       4.418  -0.352  -4.493  0.00  0.00    +0.000 A 
ENDROOT
BRANCH   4   7
ATOM      7  C   UNK A   0       6.188   1.749  -7.080  0.00  0.00    +0.000 C 
ATOM      8  O   UNK A   0       6.557   2.915  -7.147  0.00  0.00    +0.000 OA
ATOM      9  N   GLU A   1       6.232   0.869  -8.145  0.00  0.00    +0.000 N 
ATOM     10  H   GLU A   1       5.800  -0.021  -8.015  0.00  0.00    +0.000 HD
BRANCH   9  11
ATOM     11  CA  GLU A   1       6.877   1.198  -9.420  0.00  0.00    +0.000 C 
BRANCH  11  12
ATOM     12  C   GLU A   1       6.557   0.233 -10.592  0.00  0.00    +0.000 C 
ATOM     13  OXT GLU A   1       7.024   0.386 -11.715  0.00  0.00    +0.000 OA
BRANCH  12  14
ATOM     14  O   GLU A   1       5.784  -0.841 -10.327  0.00  0.00    +0.000 OA
ATOM     15  H   GLU A   1       5.403  -0.945  -9.445  0.00  0.00    +0.000 HD
ENDBRANCH  12  14
ENDBRANCH  11  12
BRANCH  11  16
ATOM     16  CB  GLU A   1       8.422   1.233  -9.291  0.00  0.00    +0.000 C 
BRANCH  16  17
ATOM     17  CG  GLU A   1       8.952   2.212  -8.247  0.00  0.00    +0.000 C 
BRANCH  17  18
ATOM     18  CD  GLU A   1      10.433   2.340  -8.034  0.00  0.00    +0.000 C 
ATOM     19  OE2 GLU A   1      10.900   3.098  -7.194  0.00  0.00    +0.000 OA
BRANCH  18  20
ATOM     20  OE1 GLU A   1      11.215   1.527  -8.763  0.00  0.00    +0.000 OA
ATOM     21  HE1 GLU A   1      10.756   0.953  -9.399  0.00  0.00    +0.000 HD
ENDBRANCH  18  20
ENDBRANCH  17  18
ENDBRANCH  16  17
ENDBRANCH  11  16
ENDBRANCH   9  11
ENDBRANCH   4   7
BRANCH   1  22
ATOM     22  N   UNK A   0       4.020   0.091  -2.175  0.00  0.00    +0.000 N 
ATOM     23  H   UNK A   0       3.431   0.791  -1.740  0.00  0.00    +0.000 HD
BRANCH  22  24
ATOM     24  C   UNK A   0       3.961  -1.249  -1.620  0.00  0.00    +0.000 C 
BRANCH  24  27
ATOM     25  C   UNK A   0       1.056  -0.091  -0.017  0.00  0.00    +0.000 C 
ATOM     26  N   UNK A   0       2.508  -0.034   0.081  0.00  0.00    +0.000 N 
ATOM     27  C   UNK A   0       3.289  -1.274  -0.208  0.00  0.00    +0.000 C 
ATOM     28  C   UNK A   0       4.368  -1.381   0.904  0.00  0.00    +0.000 C 
ATOM     29  N   UNK A   0       5.191  -0.162   0.953  0.00  0.00    +0.000 N 
ATOM     30  C   UNK A   0       4.585   1.079   0.726  0.00  0.00    +0.000 A 
ATOM     31  C   UNK A   0       3.253   1.143   0.415  0.00  0.00    +0.000 A 
ATOM     32  C   UNK A   0       2.672   2.537   0.164  0.00  0.00    +0.000 A 
ATOM     33  O   UNK A   0       1.505   2.659  -0.221  0.00  0.00    +0.000 OA
ATOM     34  N   UNK A   0       3.482   3.635   0.323  0.00  0.00    +0.000 NA
ATOM     35  C   UNK A   0       4.730   3.448   0.598  0.00  0.00    +0.000 A 
ATOM     36  N   UNK A   0       5.543   4.515   0.724  0.00  0.00    +0.000 N 
ATOM     37  N   UNK A   0       5.310   2.238   0.768  0.00  0.00    +0.000 N 
ATOM     38  H   UNK A   0       6.164  -0.246   0.681  0.00  0.00    +0.000 HD
ATOM     39  H   UNK A   0       5.095   5.424   0.685  0.00  0.00    +0.000 HD
ATOM     40  H   UNK A   0       6.490   4.474   1.064  0.00  0.00    +0.000 HD
ATOM     41  H   UNK A   0       6.286   2.155   0.997  0.00  0.00    +0.000 HD
ENDBRANCH  24  27
ENDBRANCH  22  24
ENDBRANCH   1  22
TORSDOF 11
