REMARK  Name = Levonordefrin
REMARK  7 active torsions:
REMARK  status: ('A' for Active; 'I' for Inactive)
REMARK    1  A    between atoms: C_1  and  C_2
REMARK    2  A    between atoms: C_2  and  N_3
REMARK    3  A    between atoms: C_2  and  C_4
REMARK    4  A    between atoms: C_4  and  O_5
REMARK    5  A    between atoms: C_4  and  C_6
REMARK    6  A    between atoms: C_8  and  O_9
REMARK    7  A    between atoms: C_10  and  O_11
REMARK                            x       y       z     vdW  Elec       q    Type
REMARK                         _______ _______ _______ _____ _____    ______ ____
ROOT
ATOM      1  C   UNL     1       4.562  -1.054   0.941  0.00  0.00    +0.000 A 
ATOM      2  C   UNL     1       5.333  -2.227   0.906  0.00  0.00    +0.000 A 
ATOM      3  C   UNL     1       6.721  -2.169   0.865  0.00  0.00    +0.000 A 
ATOM      4  C   UNL     1       7.370  -0.951   0.932  0.00  0.00    +0.000 A 
ATOM      5  C   UNL     1       6.645   0.227   1.048  0.00  0.00    +0.000 A 
ATOM      6  C   UNL     1       5.246   0.173   1.050  0.00  0.00    +0.000 A 
ENDROOT
BRANCH   3   7
ATOM      7  O   UNL     1       7.470  -3.309   0.751  0.00  0.00    +0.000 OA
ATOM      8  H   UNL     1       6.866  -4.067   0.680  0.00  0.00    +0.000 HD
ENDBRANCH   3   7
BRANCH   4   9
ATOM      9  O   UNL     1       8.733  -0.900   0.890  0.00  0.00    +0.000 OA
ATOM     10  H   UNL     1       9.009  -1.834   0.800  0.00  0.00    +0.000 HD
ENDBRANCH   4   9
BRANCH   1  11
ATOM     11  C   UNL     1       3.039  -1.066   0.909  0.00  0.00    +0.000 C 
BRANCH  11  13
ATOM     12  C   UNL     1       2.788  -3.030  -0.824  0.00  0.00    +0.000 C 
ATOM     13  C   UNL     1       2.297  -2.383   0.483  0.00  0.00    +0.000 C 
BRANCH  13  14
ATOM     14  N   UNL     1       2.224  -3.377   1.565  0.00  0.00    +0.000 NA
ATOM     15  H   UNL     1       3.147  -3.664   1.877  0.00  0.00    +0.000 HD
ATOM     16  H   UNL     1       1.740  -4.212   1.244  0.00  0.00    +0.000 HD
ENDBRANCH  13  14
ENDBRANCH  11  13
BRANCH  11  17
ATOM     17  O   UNL     1       2.574  -0.000   0.063  0.00  0.00    +0.000 OA
ATOM     18  H   UNL     1       2.929  -0.155  -0.826  0.00  0.00    +0.000 HD
ENDBRANCH  11  17
ENDBRANCH   1  11
TORSDOF 6
