REMARK  Name = Levobupivacaine
REMARK  8 active torsions:
REMARK  status: ('A' for Active; 'I' for Inactive)
REMARK    1  A    between atoms: C_1  and  C_2
REMARK    2  A    between atoms: C_2  and  C_3
REMARK    3  A    between atoms: C_3  and  C_4
REMARK    4  A    between atoms: C_4  and  N_5
REMARK    5  A    between atoms: C_10  and  C_11
REMARK    6  A    between atoms: N_13  and  C_14
REMARK    7  A    between atoms: C_15  and  C_16
REMARK    8  A    between atoms: C_20  and  C_21
REMARK                            x       y       z     vdW  Elec       q    Type
REMARK                         _______ _______ _______ _____ _____    ______ ____
ROOT
ATOM      1  C   UNL     1       2.686  -0.536  -3.895  0.00  0.00    +0.000 C 
ATOM      2  O   UNL     1       2.071  -1.524  -3.443  0.00  0.00    +0.000 OA
ATOM      3  N   UNL     1       1.988   0.439  -4.605  0.00  0.00    +0.000 N 
ATOM      4  H   UNL     1       2.441   0.795  -5.436  0.00  0.00    +0.000 HD
ENDROOT
BRANCH   3   5
ATOM      5  C   UNL     1       0.552   0.391  -4.575  0.00  0.00    +0.000 A 
ATOM      6  C   UNL     1      -0.112   0.564  -3.359  0.00  0.00    +0.000 A 
ATOM      7  C   UNL     1       0.649   0.876  -2.152  0.00  0.00    +0.000 C 
ATOM      8  C   UNL     1      -1.486   0.374  -3.180  0.00  0.00    +0.000 A 
ATOM      9  C   UNL     1      -2.261   0.100  -4.276  0.00  0.00    +0.000 A 
ATOM     10  C   UNL     1      -1.637  -0.006  -5.521  0.00  0.00    +0.000 A 
ATOM     11  C   UNL     1      -0.235   0.136  -5.685  0.00  0.00    +0.000 A 
ATOM     12  C   UNL     1       0.389  -0.083  -7.019  0.00  0.00    +0.000 C 
ENDBRANCH   3   5
BRANCH   1  18
ATOM     13  N   UNL     1       4.877  -1.177  -2.622  0.00  0.00    +0.000 NA
ATOM     14  C   UNL     1       4.604  -2.618  -2.741  0.00  0.00    +0.000 C 
ATOM     15  C   UNL     1       5.019  -3.176  -4.103  0.00  0.00    +0.000 C 
ATOM     16  C   UNL     1       4.502  -2.350  -5.278  0.00  0.00    +0.000 C 
ATOM     17  C   UNL     1       4.833  -0.870  -5.084  0.00  0.00    +0.000 C 
ATOM     18  C   UNL     1       4.247  -0.386  -3.750  0.00  0.00    +0.000 C 
BRANCH  13  19
ATOM     19  C   UNL     1       4.594  -0.687  -1.244  0.00  0.00    +0.000 C 
BRANCH  19  20
ATOM     20  C   UNL     1       3.105  -0.651  -0.924  0.00  0.00    +0.000 C 
BRANCH  20  22
ATOM     21  C   UNL     1       1.089  -0.109   0.589  0.00  0.00    +0.000 C 
ATOM     22  C   UNL     1       2.616  -0.081   0.401  0.00  0.00    +0.000 C 
ENDBRANCH  20  22
ENDBRANCH  19  20
ENDBRANCH  13  19
ENDBRANCH   1  18
TORSDOF 5
