REMARK  Name = Lidocaine
REMARK  9 active torsions:
REMARK  status: ('A' for Active; 'I' for Inactive)
REMARK    1  A    between atoms: C_1  and  C_2
REMARK    2  A    between atoms: C_2  and  N_3
REMARK    3  A    between atoms: N_3  and  C_4
REMARK    4  A    between atoms: N_3  and  C_6
REMARK    5  A    between atoms: C_4  and  C_5
REMARK    6  A    between atoms: C_6  and  C_7
REMARK    7  A    between atoms: N_9  and  C_10
REMARK    8  A    between atoms: C_11  and  C_12
REMARK    9  A    between atoms: C_16  and  C_17
REMARK                            x       y       z     vdW  Elec       q    Type
REMARK                         _______ _______ _______ _____ _____    ______ ____
ROOT
ATOM      1  C   UNL     1       4.915   1.364   2.587  0.00  0.00    +0.000 C 
ATOM      2  O   UNL     1       4.157   1.998   3.313  0.00  0.00    +0.000 OA
ATOM      3  N   UNL     1       6.286   1.237   2.860  0.00  0.00    +0.000 N 
ATOM      4  H   UNL     1       6.925   1.154   2.082  0.00  0.00    +0.000 HD
ENDROOT
BRANCH   3   5
ATOM      5  C   UNL     1       6.820   1.659   4.117  0.00  0.00    +0.000 A 
ATOM      6  C   UNL     1       6.239   1.199   5.323  0.00  0.00    +0.000 A 
ATOM      7  C   UNL     1       5.100   0.215   5.386  0.00  0.00    +0.000 C 
ATOM      8  C   UNL     1       6.757   1.626   6.559  0.00  0.00    +0.000 A 
ATOM      9  C   UNL     1       7.848   2.481   6.621  0.00  0.00    +0.000 A 
ATOM     10  C   UNL     1       8.441   2.917   5.442  0.00  0.00    +0.000 A 
ATOM     11  C   UNL     1       7.954   2.506   4.182  0.00  0.00    +0.000 A 
ATOM     12  C   UNL     1       8.628   3.081   2.967  0.00  0.00    +0.000 C 
ENDBRANCH   3   5
BRANCH   1  13
ATOM     13  C   UNL     1       4.413   0.628   1.312  0.00  0.00    +0.000 C 
BRANCH  13  14
ATOM     14  N   UNL     1       2.909   0.519   1.278  0.00  0.00    +0.000 NA
BRANCH  14  16
ATOM     15  C   UNL     1       0.960   0.133  -0.314  0.00  0.00    +0.000 C 
ATOM     16  C   UNL     1       2.466   0.061  -0.053  0.00  0.00    +0.000 C 
ENDBRANCH  14  16
BRANCH  14  17
ATOM     17  C   UNL     1       2.428  -0.332   2.390  0.00  0.00    +0.000 C 
ATOM     18  C   UNL     1       0.925  -0.316   2.662  0.00  0.00    +0.000 C 
ENDBRANCH  14  17
ENDBRANCH  13  14
ENDBRANCH   1  13
TORSDOF 5
