REMARK  Name = Lidoflazine
REMARK  11 active torsions:
REMARK  status: ('A' for Active; 'I' for Inactive)
REMARK    1  A    between atoms: C_1  and  C_2
REMARK    2  A    between atoms: C_6  and  C_7
REMARK    3  A    between atoms: C_8  and  N_9
REMARK    4  A    between atoms: C_10  and  C_12
REMARK    5  A    between atoms: C_12  and  N_13
REMARK    6  A    between atoms: N_16  and  C_17
REMARK    7  A    between atoms: C_17  and  C_18
REMARK    8  A    between atoms: C_18  and  C_19
REMARK    9  A    between atoms: C_19  and  C_20
REMARK   10  A    between atoms: C_20  and  C_21
REMARK   11  A    between atoms: C_20  and  C_28
REMARK                            x       y       z     vdW  Elec       q    Type
REMARK                         _______ _______ _______ _____ _____    ______ ____
ROOT
ATOM      1  N   UNL     1       2.607   5.241  -0.105  0.00  0.00    +0.000 NA
ATOM      2  C   UNL     1       3.035   6.108   1.037  0.00  0.00    +0.000 C 
ATOM      3  C   UNL     1       2.815   5.490   2.446  0.00  0.00    +0.000 C 
ATOM      4  N   UNL     1       3.393   4.145   2.603  0.00  0.00    +0.000 NA
ATOM      5  C   UNL     1       2.987   3.388   1.420  0.00  0.00    +0.000 C 
ATOM      6  C   UNL     1       3.433   4.034   0.071  0.00  0.00    +0.000 C 
ENDROOT
BRANCH   1   7
ATOM      7  C   UNL     1       1.113   4.843  -0.139  0.00  0.00    +0.000 C 
BRANCH   7   9
ATOM      8  N   UNL     1      -0.107   2.510   0.035  0.00  0.00    +0.000 N 
ATOM      9  C   UNL     1       0.876   3.303  -0.496  0.00  0.00    +0.000 C 
ATOM     10  O   UNL     1       1.630   2.767  -1.325  0.00  0.00    +0.000 OA
ATOM     11  H   UNL     1      -1.029   2.938   0.090  0.00  0.00    +0.000 HD
BRANCH   8  19
ATOM     12  C   UNL     1       2.571   0.623  -0.089  0.00  0.00    +0.000 C 
ATOM     13  C   UNL     1       1.137   0.210  -0.099  0.00  0.00    +0.000 A 
ATOM     14  C   UNL     1       1.076  -1.194  -0.053  0.00  0.00    +0.000 A 
ATOM     15  C   UNL     1      -0.128  -1.839  -0.009  0.00  0.00    +0.000 A 
ATOM     16  C   UNL     1      -1.290  -1.080   0.000  0.00  0.00    +0.000 A 
ATOM     17  C   UNL     1      -1.274   0.337  -0.001  0.00  0.00    +0.000 A 
ATOM     18  C   UNL     1      -2.599   1.046   0.001  0.00  0.00    +0.000 C 
ATOM     19  C   UNL     1      -0.050   1.034  -0.039  0.00  0.00    +0.000 A 
ENDBRANCH   8  19
ENDBRANCH   7   9
ENDBRANCH   1   7
BRANCH   4  20
ATOM     20  C   UNL     1       4.850   4.111   2.659  0.00  0.00    +0.000 C 
BRANCH  20  21
ATOM     21  C   UNL     1       5.333   2.658   2.760  0.00  0.00    +0.000 C 
BRANCH  21  22
ATOM     22  C   UNL     1       6.826   2.633   2.657  0.00  0.00    +0.000 C 
BRANCH  22  23
ATOM     23  C   UNL     1       7.388   1.199   2.620  0.00  0.00    +0.000 C 
BRANCH  23  24
ATOM     24  C   UNL     1       6.901   0.370   1.413  0.00  0.00    +0.000 A 
ATOM     25  C   UNL     1       7.001  -1.033   1.452  0.00  0.00    +0.000 A 
ATOM     26  C   UNL     1       6.761  -1.801   0.316  0.00  0.00    +0.000 A 
ATOM     27  C   UNL     1       6.283  -1.190  -0.832  0.00  0.00    +0.000 A 
ATOM     28  F   UNL     1       6.016  -1.931  -1.913  0.00  0.00    +0.000 F 
ATOM     29  C   UNL     1       6.066   0.177  -0.872  0.00  0.00    +0.000 A 
ATOM     30  C   UNL     1       6.412   0.955   0.230  0.00  0.00    +0.000 A 
ENDBRANCH  23  24
BRANCH  23  31
ATOM     31  C   UNL     1       8.918   1.254   2.671  0.00  0.00    +0.000 A 
ATOM     32  C   UNL     1       9.622   2.472   2.658  0.00  0.00    +0.000 A 
ATOM     33  C   UNL     1      11.010   2.499   2.650  0.00  0.00    +0.000 A 
ATOM     34  C   UNL     1      11.713   1.306   2.653  0.00  0.00    +0.000 A 
ATOM     35  F   UNL     1      13.049   1.331   2.634  0.00  0.00    +0.000 F 
ATOM     36  C   UNL     1      11.055   0.090   2.681  0.00  0.00    +0.000 A 
ATOM     37  C   UNL     1       9.667   0.068   2.714  0.00  0.00    +0.000 A 
ENDBRANCH  23  31
ENDBRANCH  22  23
ENDBRANCH  21  22
ENDBRANCH  20  21
ENDBRANCH   4  20
TORSDOF 9
