REMARK  Name = Lifitegrast
REMARK  9 active torsions:
REMARK  status: ('A' for Active; 'I' for Inactive)
REMARK    1  A    between atoms: C_1  and  S_2
REMARK    2  A    between atoms: S_2  and  C_5
REMARK    3  A    between atoms: C_7  and  C_8
REMARK    4  A    between atoms: C_8  and  CA_9
REMARK    5  A    between atoms: CA_9  and  N_10
REMARK    6  A    between atoms: CA_9  and  C_36
REMARK    7  A    between atoms: C_11  and  C_13
REMARK    8  A    between atoms: C_22  and  C_24
REMARK    9  A    between atoms: C_36  and  O_37
REMARK                            x       y       z     vdW  Elec       q    Type
REMARK                         _______ _______ _______ _____ _____    ______ ____
ROOT
ATOM      1  C   UNL     1       4.429   0.462   2.982  0.00  0.00    +0.000 A 
ATOM      2  C   UNL     1       5.038   0.126   1.728  0.00  0.00    +0.000 A 
ATOM      3 CL   UNL     1       6.620   0.761   1.246  0.00  0.00    +0.000 Cl
ATOM      4  C   UNL     1       4.699  -1.067   1.044  0.00  0.00    +0.000 A 
ATOM      5  C   UNL     1       4.445  -2.139   1.824  0.00  0.00    +0.000 A 
ATOM      6  C   UNL     1       4.290  -3.536   0.635  0.00  0.00    +0.000 C 
ATOM      7  N   UNL     1       3.038  -4.106   0.843  0.00  0.00    +0.000 N 
ATOM      8  C   UNL     1       2.332  -2.890   0.981  0.00  0.00    +0.000 C 
ATOM      9  C   UNL     1       3.364  -1.454   0.197  0.00  0.00    +0.000 C 
ATOM     10  C   UNL     1       2.766  -5.424   0.726  0.00  0.00    +0.000 C 
ATOM     11  O   UNL     1       3.410  -6.056  -0.164  0.00  0.00    +0.000 OA
ATOM     12  C   UNL     1       3.480  -1.637   2.905  0.00  0.00    +0.000 A 
ATOM     13  C   UNL     1       3.474  -0.387   3.474  0.00  0.00    +0.000 A 
ATOM     14 CL   UNL     1       2.208  -0.021   4.650  0.00  0.00    +0.000 Cl
ENDROOT
BRANCH  10  15
ATOM     15  C   UNL     1       1.888  -6.266   1.621  0.00  0.00    +0.000 A 
ATOM     16  C   UNL     1       2.355  -7.595   1.741  0.00  0.00    +0.000 A 
ATOM     17  C   UNL     1       1.554  -8.628   2.211  0.00  0.00    +0.000 A 
ATOM     18  C   UNL     1       0.324  -8.313   2.768  0.00  0.00    +0.000 A 
ATOM     19  C   UNL     1      -0.633  -9.111   3.424  0.00  0.00    +0.000 A 
ATOM     20  C   UNL     1      -1.638  -8.262   3.799  0.00  0.00    +0.000 A 
ATOM     21  O   UNL     1      -1.360  -6.977   3.391  0.00  0.00    +0.000 OA
ATOM     22  C   UNL     1      -0.118  -6.993   2.770  0.00  0.00    +0.000 A 
ATOM     23  C   UNL     1       0.635  -5.925   2.192  0.00  0.00    +0.000 A 
ENDBRANCH  10  15
BRANCH   1  25
ATOM     24  N   UNL     1       4.214   2.169   4.712  0.00  0.00    +0.000 N 
ATOM     25  C   UNL     1       4.053   1.789   3.396  0.00  0.00    +0.000 C 
ATOM     26  O   UNL     1       3.122   2.137   2.733  0.00  0.00    +0.000 OA
ATOM     27  H   UNL     1       4.140   1.355   5.287  0.00  0.00    +0.000 HD
BRANCH  24  28
ATOM     28  CA  UNL     1       3.905   3.503   5.280  0.00  0.00    +0.000 C 
BRANCH  28  29
ATOM     29  C   UNL     1       3.966   3.445   6.834  0.00  0.00    +0.000 C 
ATOM     30  OXT UNL     1       3.924   4.446   7.540  0.00  0.00    +0.000 OA
BRANCH  29  31
ATOM     31  O   UNL     1       4.058   2.229   7.424  0.00  0.00    +0.000 OA
ATOM     32  H   UNL     1       4.036   1.414   6.906  0.00  0.00    +0.000 HD
ENDBRANCH  29  31
ENDBRANCH  28  29
BRANCH  28  33
ATOM     33  C   UNL     1       2.625   4.313   4.839  0.00  0.00    +0.000 C 
BRANCH  33  36
ATOM     34  C   UNL     1       2.811   4.007   1.024  0.00  0.00    +0.000 A 
ATOM     35  C   UNL     1       3.310   4.416   2.315  0.00  0.00    +0.000 A 
ATOM     36  C   UNL     1       2.381   4.636   3.346  0.00  0.00    +0.000 A 
ATOM     37  C   UNL     1       1.098   4.985   2.919  0.00  0.00    +0.000 A 
ATOM     38  C   UNL     1       0.683   4.781   1.585  0.00  0.00    +0.000 A 
ATOM     39  C   UNL     1       1.509   4.191   0.656  0.00  0.00    +0.000 A 
BRANCH  34  41
ATOM     40  C   UNL     1       2.553   1.245   0.175  0.00  0.00    +0.000 C 
ATOM     41  S   UNL     1       3.603   2.746   0.047  0.00  0.00    +0.000 S 
ATOM     42  O   UNL     1       4.888   2.630   0.688  0.00  0.00    +0.000 OA
ATOM     43  O   UNL     1       3.576   3.090  -1.360  0.00  0.00    +0.000 OA
ENDBRANCH  34  41
ENDBRANCH  33  36
ENDBRANCH  28  33
ENDBRANCH  24  28
ENDBRANCH   1  25
TORSDOF 8
