REMARK  Name = Linagliptin
REMARK  8 active torsions:
REMARK  status: ('A' for Active; 'I' for Inactive)
REMARK    1  A    between atoms: C_1  and  C_2
REMARK    2  A    between atoms: C_3  and  C_4
REMARK    3  A    between atoms: C_4  and  N_5
REMARK    4  A    between atoms: N_12  and  C_13
REMARK    5  A    between atoms: C_13  and  C_14
REMARK    6  A    between atoms: C_22  and  C_23
REMARK    7  A    between atoms: N_27  and  C_28
REMARK    8  A    between atoms: C_33  and  N_34
REMARK                            x       y       z     vdW  Elec       q    Type
REMARK                         _______ _______ _______ _____ _____    ______ ____
ROOT
ATOM      1  N   UNL     1       5.977  -0.382   1.473  0.00  0.00    +0.000 N 
ATOM      2  C   UNL     1       5.999  -1.731   2.104  0.00  0.00    +0.000 A 
ATOM      3  N   UNL     1       6.424  -1.591   3.356  0.00  0.00    +0.000 NA
ATOM      4  C   UNL     1       6.707  -0.278   3.603  0.00  0.00    +0.000 A 
ATOM      5  C   UNL     1       6.450   0.539   2.525  0.00  0.00    +0.000 A 
ATOM      6  C   UNL     1       6.686   2.002   2.699  0.00  0.00    +0.000 A 
ATOM      7  O   UNL     1       6.494   2.814   1.793  0.00  0.00    +0.000 OA
ATOM      8  N   UNL     1       7.154   2.437   4.003  0.00  0.00    +0.000 N 
ATOM      9  C   UNL     1       7.330   1.553   5.059  0.00  0.00    +0.000 A 
ATOM     10  O   UNL     1       7.579   1.917   6.202  0.00  0.00    +0.000 OA
ATOM     11  N   UNL     1       7.173   0.198   4.825  0.00  0.00    +0.000 N 
ATOM     12  C   UNL     1       7.446  -0.669   5.967  0.00  0.00    +0.000 C 
ATOM     13  N   UNL     1       5.591  -2.995   1.621  0.00  0.00    +0.000 N 
ATOM     14  C   UNL     1       6.182  -3.717   0.480  0.00  0.00    +0.000 C 
ATOM     15  C   UNL     1       6.719  -5.139   0.812  0.00  0.00    +0.000 C 
ATOM     16  C   UNL     1       5.676  -6.024   1.487  0.00  0.00    +0.000 C 
ATOM     17  C   UNL     1       5.193  -5.331   2.762  0.00  0.00    +0.000 C 
ATOM     18  C   UNL     1       4.668  -3.878   2.435  0.00  0.00    +0.000 C 
ENDROOT
BRANCH  17  19
ATOM     19  N   UNL     1       6.264  -5.313   3.768  0.00  0.00    +0.000 NA
ATOM     20  H   UNL     1       6.991  -4.675   3.438  0.00  0.00    +0.000 HD
ATOM     21  H   UNL     1       6.691  -6.232   3.869  0.00  0.00    +0.000 HD
ENDBRANCH  17  19
BRANCH   1  22
ATOM     22  C   UNL     1       5.442   0.017   0.006  0.00  0.00    +0.000 C 
BRANCH  22  25
ATOM     23  C   UNL     1       1.098   0.017   0.006  0.00  0.00    +0.000 C 
ATOM     24  C   UNL     1       2.618   0.017   0.006  0.00  0.00    +0.000 C 
ATOM     25  C   UNL     1       3.922   0.017   0.006  0.00  0.00    +0.000 C 
ENDBRANCH  22  25
ENDBRANCH   1  22
BRANCH   8  26
ATOM     26  C   UNL     1       7.409   3.936   4.318  0.00  0.00    +0.000 C 
BRANCH  26  27
ATOM     27  C   UNL     1       8.026   4.373   5.734  0.00  0.00    +0.000 A 
ATOM     28  N   UNL     1       7.413   5.156   6.711  0.00  0.00    +0.000 NA
ATOM     29  C   UNL     1       8.089   5.216   8.014  0.00  0.00    +0.000 A 
ATOM     30  C   UNL     1       8.799   4.151   8.331  0.00  0.00    +0.000 A 
ATOM     31  C   UNL     1       9.054   3.849   9.705  0.00  0.00    +0.000 A 
ATOM     32  C   UNL     1      10.116   4.574  10.037  0.00  0.00    +0.000 A 
ATOM     33  C   UNL     1       9.536   5.787  10.184  0.00  0.00    +0.000 A 
ATOM     34  C   UNL     1       8.338   6.084   9.210  0.00  0.00    +0.000 A 
ATOM     35  C   UNL     1       9.597   3.730   7.257  0.00  0.00    +0.000 A 
ATOM     36  C   UNL     1      10.878   3.031   7.555  0.00  0.00    +0.000 C 
ATOM     37  N   UNL     1       9.253   3.893   5.953  0.00  0.00    +0.000 NA
ENDBRANCH  26  27
ENDBRANCH   8  26
TORSDOF 5
