REMARK  Name = Lincomycin
REMARK  15 active torsions:
REMARK  status: ('A' for Active; 'I' for Inactive)
REMARK    1  A    between atoms: C_2  and  C_11
REMARK    2  A    between atoms: C_4  and  C_5
REMARK    3  A    between atoms: C_5  and  C_6
REMARK    4  A    between atoms: C_6  and  C_7
REMARK    5  A    between atoms: N_9  and  C_10
REMARK    6  A    between atoms: N_13  and  C_14
REMARK    7  A    between atoms: C_14  and  C_15
REMARK    8  A    between atoms: C_14  and  C_18
REMARK    9  A    between atoms: C_15  and  C_16
REMARK   10  A    between atoms: C_15  and  O_17
REMARK   11  A    between atoms: C_20  and  S_21
REMARK   12  A    between atoms: S_21  and  C_22
REMARK   13  A    between atoms: C_23  and  O_24
REMARK   14  A    between atoms: C_25  and  O_26
REMARK   15  A    between atoms: C_27  and  O_28
REMARK                            x       y       z     vdW  Elec       q    Type
REMARK                         _______ _______ _______ _____ _____    ______ ____
ROOT
ATOM      1  C   UNL     1       6.307   1.272  -4.089  0.00  0.00    +0.000 C 
ENDROOT
BRANCH   1   2
ATOM      2  C   UNL     1       5.861   1.916  -2.733  0.00  0.00    +0.000 C 
ATOM      3  O   UNL     1       6.348   1.102  -1.639  0.00  0.00    +0.000 OA
ATOM      4  C   UNL     1       5.805   1.503  -0.355  0.00  0.00    +0.000 C 
ATOM      5  C   UNL     1       6.268   2.944  -0.053  0.00  0.00    +0.000 C 
ATOM      6  C   UNL     1       5.760   3.890  -1.151  0.00  0.00    +0.000 C 
ATOM      7  C   UNL     1       6.291   3.397  -2.473  0.00  0.00    +0.000 C 
BRANCH   4   8
ATOM      8  S   UNL     1       3.966   1.204  -0.366  0.00  0.00    +0.000 S 
ATOM      9  C   UNL     1       3.412   1.859   1.218  0.00  0.00    +0.000 C 
ENDBRANCH   4   8
BRANCH   5  10
ATOM     10  O   UNL     1       5.876   3.395   1.234  0.00  0.00    +0.000 OA
ATOM     11  H   UNL     1       5.123   3.992   1.079  0.00  0.00    +0.000 HD
ENDBRANCH   5  10
BRANCH   6  12
ATOM     12  O   UNL     1       6.255   5.219  -0.925  0.00  0.00    +0.000 OA
ATOM     13  H   UNL     1       7.211   5.181  -1.155  0.00  0.00    +0.000 HD
ENDBRANCH   6  12
BRANCH   7  14
ATOM     14  O   UNL     1       7.711   3.641  -2.317  0.00  0.00    +0.000 OA
ATOM     15  H   UNL     1       8.126   2.835  -1.941  0.00  0.00    +0.000 HD
ENDBRANCH   7  14
ENDBRANCH   1   2
BRANCH   1  18
ATOM     16  C   UNL     1       5.323   1.345  -6.528  0.00  0.00    +0.000 C 
ATOM     17  O   UNL     1       4.387   1.915  -7.134  0.00  0.00    +0.000 OA
ATOM     18  N   UNL     1       5.254   1.403  -5.156  0.00  0.00    +0.000 N 
ATOM     19  H   UNL     1       4.376   1.828  -4.872  0.00  0.00    +0.000 HD
BRANCH  16  20
ATOM     20  C   UNL     1       6.427   0.623  -7.353  0.00  0.00    +0.000 C 
ATOM     21  C   UNL     1       6.434  -0.842  -6.951  0.00  0.00    +0.000 C 
ATOM     22  C   UNL     1       7.899  -1.278  -6.935  0.00  0.00    +0.000 C 
ATOM     23  C   UNL     1       8.696  -0.096  -7.478  0.00  0.00    +0.000 C 
ATOM     24  N   UNL     1       7.833   1.045  -7.177  0.00  0.00    +0.000 NA
ATOM     25  C   UNL     1       8.319   2.224  -7.906  0.00  0.00    +0.000 C 
BRANCH  22  26
ATOM     26  C   UNL     1       8.215  -2.497  -7.768  0.00  0.00    +0.000 C 
BRANCH  26  27
ATOM     27  C   UNL     1       7.252  -3.647  -7.541  0.00  0.00    +0.000 C 
ATOM     28  C   UNL     1       7.673  -4.806  -8.414  0.00  0.00    +0.000 C 
ENDBRANCH  26  27
ENDBRANCH  22  26
ENDBRANCH  16  20
ENDBRANCH   1  18
BRANCH   1  29
ATOM     29  C   UNL     1       7.635   1.934  -4.451  0.00  0.00    +0.000 C 
ATOM     30  C   UNL     1       7.420   3.160  -5.337  0.00  0.00    +0.000 C 
BRANCH  29  31
ATOM     31  O   UNL     1       8.612   0.965  -4.758  0.00  0.00    +0.000 OA
ATOM     32  H   UNL     1       8.235   0.521  -5.525  0.00  0.00    +0.000 HD
ENDBRANCH  29  31
ENDBRANCH   1  29
TORSDOF 11
