REMARK  Name = Lindane
REMARK  0 active torsions:
REMARK  status: ('A' for Active; 'I' for Inactive)
REMARK                            x       y       z     vdW  Elec       q    Type
REMARK                         _______ _______ _______ _____ _____    ______ ____
ROOT
ATOM      1 CL   UNL     1       3.332   0.372   1.738  0.00  0.00    +0.000 Cl
ATOM      2  C   UNL     1       2.857  -0.047   0.051  0.00  0.00    +0.000 C 
ATOM      3  C   UNL     1       3.345   1.003  -0.972  0.00  0.00    +0.000 C 
ATOM      4 CL   UNL     1       2.632   2.614  -0.557  0.00  0.00    +0.000 Cl
ATOM      5  C   UNL     1       2.919   0.612  -2.404  0.00  0.00    +0.000 C 
ATOM      6 CL   UNL     1       3.468   1.814  -3.630  0.00  0.00    +0.000 Cl
ATOM      7  C   UNL     1       3.356  -0.813  -2.802  0.00  0.00    +0.000 C 
ATOM      8 CL   UNL     1       5.125  -0.921  -3.117  0.00  0.00    +0.000 Cl
ATOM      9  C   UNL     1       2.923  -1.853  -1.749  0.00  0.00    +0.000 C 
ATOM     10 CL   UNL     1       1.122  -2.046  -1.846  0.00  0.00    +0.000 Cl
ATOM     11  C   UNL     1       3.294  -1.485  -0.299  0.00  0.00    +0.000 C 
ATOM     12 CL   UNL     1       5.047  -1.758   0.002  0.00  0.00    +0.000 Cl
ENDROOT
TORSDOF 0
