REMARK  Name = Linezolid
REMARK  5 active torsions:
REMARK  status: ('A' for Active; 'I' for Inactive)
REMARK    1  A    between atoms: C_1  and  C_2
REMARK    2  A    between atoms: N_4  and  C_5
REMARK    3  A    between atoms: C_5  and  C_6
REMARK    4  A    between atoms: N_8  and  C_12
REMARK    5  A    between atoms: C_16  and  N_19
REMARK                            x       y       z     vdW  Elec       q    Type
REMARK                         _______ _______ _______ _____ _____    ______ ____
ROOT
ATOM      1  C   UNL     1       8.182   2.245   2.821  0.00  0.00    +0.000 A 
ATOM      2  C   UNL     1       9.073   2.235   1.746  0.00  0.00    +0.000 A 
ATOM      3  C   UNL     1      10.022   3.256   1.609  0.00  0.00    +0.000 A 
ATOM      4  F   UNL     1      10.841   3.216   0.544  0.00  0.00    +0.000 F 
ATOM      5  C   UNL     1      10.171   4.271   2.567  0.00  0.00    +0.000 A 
ATOM      6  C   UNL     1       9.296   4.226   3.665  0.00  0.00    +0.000 A 
ATOM      7  C   UNL     1       8.288   3.253   3.776  0.00  0.00    +0.000 A 
ENDROOT
BRANCH   1  10
ATOM      8  C   UNL     1       5.184   0.153   2.772  0.00  0.00    +0.000 C 
ATOM      9  C   UNL     1       5.796   1.518   3.037  0.00  0.00    +0.000 C 
ATOM     10  N   UNL     1       7.195   1.251   2.923  0.00  0.00    +0.000 N 
ATOM     11  C   UNL     1       7.441  -0.103   2.949  0.00  0.00    +0.000 C 
ATOM     12  O   UNL     1       8.527  -0.662   3.019  0.00  0.00    +0.000 OA
ATOM     13  O   UNL     1       6.256  -0.788   2.958  0.00  0.00    +0.000 OA
BRANCH   8  14
ATOM     14  C   UNL     1       4.014  -0.187   3.695  0.00  0.00    +0.000 C 
BRANCH  14  18
ATOM     15  C   UNL     1       3.975  -1.169   7.368  0.00  0.00    +0.000 C 
ATOM     16  C   UNL     1       3.445  -0.820   6.000  0.00  0.00    +0.000 C 
ATOM     17  O   UNL     1       2.245  -0.833   5.743  0.00  0.00    +0.000 OA
ATOM     18  N   UNL     1       4.402  -0.462   5.074  0.00  0.00    +0.000 N 
ATOM     19  H   UNL     1       5.380  -0.636   5.282  0.00  0.00    +0.000 HD
ENDBRANCH  14  18
ENDBRANCH   8  14
ENDBRANCH   1  10
BRANCH   5  20
ATOM     20  N   UNL     1      11.141   5.247   2.492  0.00  0.00    +0.000 N 
ATOM     21  C   UNL     1      11.322   6.149   1.347  0.00  0.00    +0.000 C 
ATOM     22  C   UNL     1      12.793   6.146   0.893  0.00  0.00    +0.000 C 
ATOM     23  O   UNL     1      13.689   6.418   1.989  0.00  0.00    +0.000 OA
ATOM     24  C   UNL     1      13.521   5.423   3.016  0.00  0.00    +0.000 C 
ATOM     25  C   UNL     1      12.092   5.449   3.587  0.00  0.00    +0.000 C 
ENDBRANCH   5  20
TORSDOF 4
