REMARK  Name = Linoleic acid
REMARK  16 active torsions:
REMARK  status: ('A' for Active; 'I' for Inactive)
REMARK    1  A    between atoms: C_1  and  C_2
REMARK    2  A    between atoms: C_2  and  C_3
REMARK    3  A    between atoms: C_3  and  C_4
REMARK    4  A    between atoms: C_4  and  C_5
REMARK    5  A    between atoms: C_5  and  C_6
REMARK    6  A    between atoms: C_7  and  C_8
REMARK    7  A    between atoms: C_8  and  C_9
REMARK    8  A    between atoms: C_10  and  C_11
REMARK    9  A    between atoms: C_11  and  C_12
REMARK   10  A    between atoms: C_12  and  C_13
REMARK   11  A    between atoms: C_13  and  C_14
REMARK   12  A    between atoms: C_14  and  C_15
REMARK   13  A    between atoms: C_15  and  C_16
REMARK   14  A    between atoms: C_16  and  C_17
REMARK   15  A    between atoms: C_17  and  C_18
REMARK   16  A    between atoms: C_18  and  O_19
REMARK                            x       y       z     vdW  Elec       q    Type
REMARK                         _______ _______ _______ _____ _____    ______ ____
ROOT
ATOM      1  C   UNL     1       5.619   7.566   2.719  0.00  0.00    +0.000 C 
ENDROOT
BRANCH   1   3
ATOM      2  C   UNL     1       7.546   6.092   2.177  0.00  0.00    +0.000 C 
ATOM      3  C   UNL     1       7.087   7.275   2.612  0.00  0.00    +0.000 C 
BRANCH   2   4
ATOM      4  C   UNL     1       6.616   4.993   1.774  0.00  0.00    +0.000 C 
BRANCH   4   6
ATOM      5  C   UNL     1       6.632   2.669   0.920  0.00  0.00    +0.000 C 
ATOM      6  C   UNL     1       7.315   3.753   1.318  0.00  0.00    +0.000 C 
BRANCH   5   7
ATOM      7  C   UNL     1       5.132   2.631   0.906  0.00  0.00    +0.000 C 
BRANCH   7   8
ATOM      8  C   UNL     1       4.610   1.293   0.415  0.00  0.00    +0.000 C 
BRANCH   8   9
ATOM      9  C   UNL     1       3.087   1.296   0.416  0.00  0.00    +0.000 C 
BRANCH   9  11
ATOM     10  C   UNL     1       1.042  -0.047  -0.078  0.00  0.00    +0.000 C 
ATOM     11  C   UNL     1       2.558  -0.043  -0.076  0.00  0.00    +0.000 C 
ENDBRANCH   9  11
ENDBRANCH   8   9
ENDBRANCH   7   8
ENDBRANCH   5   7
ENDBRANCH   4   6
ENDBRANCH   2   4
ENDBRANCH   1   3
BRANCH   1  12
ATOM     12  C   UNL     1       5.368   8.969   3.234  0.00  0.00    +0.000 C 
BRANCH  12  13
ATOM     13  C   UNL     1       3.871   9.221   3.327  0.00  0.00    +0.000 C 
BRANCH  13  14
ATOM     14  C   UNL     1       3.618  10.624   3.842  0.00  0.00    +0.000 C 
BRANCH  14  15
ATOM     15  C   UNL     1       2.124  10.889   3.940  0.00  0.00    +0.000 C 
BRANCH  15  16
ATOM     16  C   UNL     1       1.902  12.299   4.458  0.00  0.00    +0.000 C 
BRANCH  16  17
ATOM     17  C   UNL     1       0.426  12.630   4.579  0.00  0.00    +0.000 C 
BRANCH  17  18
ATOM     18  C   UNL     1       0.118  14.018   5.089  0.00  0.00    +0.000 C 
ATOM     19  O   UNL     1      -1.035  14.411   5.233  0.00  0.00    +0.000 OA
BRANCH  18  20
ATOM     20  O   UNL     1       1.162  14.817   5.382  0.00  0.00    +0.000 OA
ATOM     21  H   UNL     1       2.058  14.458   5.251  0.00  0.00    +0.000 HD
ENDBRANCH  18  20
ENDBRANCH  17  18
ENDBRANCH  16  17
ENDBRANCH  15  16
ENDBRANCH  14  15
ENDBRANCH  13  14
ENDBRANCH  12  13
ENDBRANCH   1  12
TORSDOF 15
