REMARK  Name = Linzagolix
REMARK  10 active torsions:
REMARK  status: ('A' for Active; 'I' for Inactive)
REMARK    1  A    between atoms: C_1  and  O_2
REMARK    2  A    between atoms: O_2  and  C_3
REMARK    3  A    between atoms: C_4  and  C_5
REMARK    4  A    between atoms: C_5  and  O_6
REMARK    5  A    between atoms: O_6  and  C_7
REMARK    6  A    between atoms: C_8  and  O_9
REMARK    7  A    between atoms: O_9  and  C_10
REMARK    8  A    between atoms: C_14  and  N_16
REMARK    9  A    between atoms: C_23  and  C_24
REMARK   10  A    between atoms: C_24  and  O_25
REMARK                            x       y       z     vdW  Elec       q    Type
REMARK                         _______ _______ _______ _____ _____    ______ ____
ROOT
ATOM      1  C   UNL     1       0.256  -2.908   3.868  0.00  0.00    +0.000 A 
ATOM      2  C   UNL     1       0.018  -3.954   2.959  0.00  0.00    +0.000 A 
ATOM      3  C   UNL     1      -1.024  -4.843   3.216  0.00  0.00    +0.000 A 
ATOM      4  C   UNL     1      -1.788  -4.718   4.375  0.00  0.00    +0.000 A 
ATOM      5  F   UNL     1      -2.798  -5.581   4.559  0.00  0.00    +0.000 F 
ATOM      6  C   UNL     1      -1.564  -3.686   5.290  0.00  0.00    +0.000 A 
ATOM      7  C   UNL     1      -0.540  -2.769   5.019  0.00  0.00    +0.000 A 
ENDROOT
BRANCH   6   8
ATOM      8  N   UNL     1      -2.381  -3.563   6.462  0.00  0.00    +0.000 N 
ATOM      9  C   UNL     1      -2.436  -4.658   7.338  0.00  0.00    +0.000 A 
ATOM     10  O   UNL     1      -1.782  -5.695   7.216  0.00  0.00    +0.000 OA
ATOM     11  N   UNL     1      -3.239  -4.531   8.449  0.00  0.00    +0.000 N 
ATOM     12  C   UNL     1      -3.987  -3.406   8.696  0.00  0.00    +0.000 A 
ATOM     13  C   UNL     1      -4.805  -3.217   9.780  0.00  0.00    +0.000 A 
ATOM     14  S   UNL     1      -5.577  -1.696   9.711  0.00  0.00    +0.000 S 
ATOM     15  C   UNL     1      -4.809  -1.272   8.220  0.00  0.00    +0.000 A 
ATOM     16  C   UNL     1      -3.963  -2.302   7.801  0.00  0.00    +0.000 A 
ATOM     17  C   UNL     1      -3.118  -2.368   6.607  0.00  0.00    +0.000 A 
ATOM     18  O   UNL     1      -3.089  -1.469   5.775  0.00  0.00    +0.000 OA
ATOM     19  H   UNL     1      -3.242  -5.317   9.089  0.00  0.00    +0.000 HD
BRANCH  15  20
ATOM     20  C   UNL     1      -5.099   0.024   7.596  0.00  0.00    +0.000 C 
ATOM     21  O   UNL     1      -4.642   0.452   6.556  0.00  0.00    +0.000 OA
BRANCH  20  22
ATOM     22  O   UNL     1      -5.983   0.791   8.302  0.00  0.00    +0.000 OA
ATOM     23  H   UNL     1      -6.307   0.384   9.125  0.00  0.00    +0.000 HD
ENDBRANCH  20  22
ENDBRANCH  15  20
ENDBRANCH   6   8
BRANCH   2  24
ATOM     24  O   UNL     1       0.857  -4.066   1.886  0.00  0.00    +0.000 OA
ATOM     25  C   UNL     1       0.607  -5.092   0.938  0.00  0.00    +0.000 C 
ENDBRANCH   2  24
BRANCH   1  26
ATOM     26  O   UNL     1       1.325  -2.050   3.792  0.00  0.00    +0.000 OA
BRANCH  26  27
ATOM     27  C   UNL     1       1.490  -1.399   2.532  0.00  0.00    +0.000 C 
BRANCH  27  29
ATOM     28  C   UNL     1       2.981   0.261   1.291  0.00  0.00    +0.000 A 
ATOM     29  C   UNL     1       2.630  -0.412   2.482  0.00  0.00    +0.000 A 
ATOM     30  C   UNL     1       3.410  -0.179   3.625  0.00  0.00    +0.000 A 
ATOM     31  F   UNL     1       3.155  -0.815   4.777  0.00  0.00    +0.000 F 
ATOM     32  C   UNL     1       4.481   0.703   3.604  0.00  0.00    +0.000 A 
ATOM     33  F   UNL     1       5.195   0.908   4.720  0.00  0.00    +0.000 F 
ATOM     34  C   UNL     1       4.823   1.370   2.440  0.00  0.00    +0.000 A 
ATOM     35  C   UNL     1       4.088   1.130   1.278  0.00  0.00    +0.000 A 
BRANCH  28  37
ATOM     36  C   UNL     1       0.991   0.120  -0.025  0.00  0.00    +0.000 C 
ATOM     37  O   UNL     1       2.413   0.058   0.056  0.00  0.00    +0.000 OA
ENDBRANCH  28  37
ENDBRANCH  27  29
ENDBRANCH  26  27
ENDBRANCH   1  26
TORSDOF 8
