REMARK  Name = Lipoic acid
REMARK  6 active torsions:
REMARK  status: ('A' for Active; 'I' for Inactive)
REMARK    1  A    between atoms: O_1  and  C_2
REMARK    2  A    between atoms: C_2  and  C_4
REMARK    3  A    between atoms: C_4  and  C_5
REMARK    4  A    between atoms: C_5  and  C_6
REMARK    5  A    between atoms: C_6  and  C_7
REMARK    6  A    between atoms: C_7  and  C_8
REMARK                            x       y       z     vdW  Elec       q    Type
REMARK                         _______ _______ _______ _____ _____    ______ ____
ROOT
ATOM      1  C   UNL     1       5.288   0.316   2.257  0.00  0.00    +0.000 C 
ENDROOT
BRANCH   1   2
ATOM      2  C   UNL     1       4.534   0.167   0.957  0.00  0.00    +0.000 C 
BRANCH   2   3
ATOM      3  C   UNL     1       3.023   0.179   1.211  0.00  0.00    +0.000 C 
BRANCH   3   4
ATOM      4  C   UNL     1       2.299   0.010  -0.099  0.00  0.00    +0.000 C 
ATOM      5  O   UNL     1       2.856  -0.130  -1.182  0.00  0.00    +0.000 OA
BRANCH   4   6
ATOM      6  O   UNL     1       0.955   0.017   0.011  0.00  0.00    +0.000 OA
ATOM      7  H   UNL     1       0.612   0.135   0.916  0.00  0.00    +0.000 HD
ENDBRANCH   4   6
ENDBRANCH   3   4
ENDBRANCH   2   3
ENDBRANCH   1   2
BRANCH   1   8
ATOM      8  C   UNL     1       6.809   0.275   2.068  0.00  0.00    +0.000 C 
BRANCH   8   9
ATOM      9  C   UNL     1       7.576   0.427   3.390  0.00  0.00    +0.000 C 
ATOM     10  C   UNL     1       7.018  -0.477   4.505  0.00  0.00    +0.000 C 
ATOM     11  C   UNL     1       7.368   0.041   5.886  0.00  0.00    +0.000 C 
ATOM     12  S   UNL     1       6.849   1.770   5.869  0.00  0.00    +0.000 S 
ATOM     13  S   UNL     1       7.524   2.158   3.979  0.00  0.00    +0.000 S 
ENDBRANCH   8   9
ENDBRANCH   1   8
TORSDOF 6
