REMARK  Name = Lisdexamfetamine
REMARK  11 active torsions:
REMARK  status: ('A' for Active; 'I' for Inactive)
REMARK    1  A    between atoms: C_1  and  C_2
REMARK    2  A    between atoms: C_2  and  C_3
REMARK    3  A    between atoms: C_2  and  N_10
REMARK    4  A    between atoms: C_3  and  C_4
REMARK    5  A    between atoms: C_11  and  C_13
REMARK    6  A    between atoms: C_13  and  N_14
REMARK    7  A    between atoms: C_13  and  C_15
REMARK    8  A    between atoms: C_15  and  C_16
REMARK    9  A    between atoms: C_16  and  C_17
REMARK   10  A    between atoms: C_17  and  C_18
REMARK   11  A    between atoms: C_18  and  N_19
REMARK                            x       y       z     vdW  Elec       q    Type
REMARK                         _______ _______ _______ _____ _____    ______ ____
ROOT
ATOM      1  N   UNL     1       2.993   0.884   1.142  0.00  0.00    +0.000 N 
ATOM      2  C   UNL     1       4.361   0.946   1.339  0.00  0.00    +0.000 C 
ATOM      3  O   UNL     1       5.156   0.324   0.630  0.00  0.00    +0.000 OA
ATOM      4  H   UNL     1       2.369   1.373   1.770  0.00  0.00    +0.000 HD
ENDROOT
BRANCH   1   6
ATOM      5  C   UNL     1       0.912   0.052   0.093  0.00  0.00    +0.000 C 
ATOM      6  C   UNL     1       2.443   0.089   0.046  0.00  0.00    +0.000 C 
BRANCH   6   7
ATOM      7  C   UNL     1       2.929   0.622  -1.327  0.00  0.00    +0.000 C 
BRANCH   7   8
ATOM      8  C   UNL     1       2.506  -0.270  -2.464  0.00  0.00    +0.000 A 
ATOM      9  C   UNL     1       1.680   0.201  -3.489  0.00  0.00    +0.000 A 
ATOM     10  C   UNL     1       1.224  -0.680  -4.468  0.00  0.00    +0.000 A 
ATOM     11  C   UNL     1       1.647  -2.010  -4.467  0.00  0.00    +0.000 A 
ATOM     12  C   UNL     1       2.488  -2.478  -3.462  0.00  0.00    +0.000 A 
ATOM     13  C   UNL     1       2.915  -1.611  -2.465  0.00  0.00    +0.000 A 
ENDBRANCH   7   8
ENDBRANCH   6   7
ENDBRANCH   1   6
BRANCH   2  14
ATOM     14  C   UNL     1       4.824   1.847   2.498  0.00  0.00    +0.000 C 
BRANCH  14  15
ATOM     15  N   UNL     1       4.309   1.323   3.778  0.00  0.00    +0.000 NA
ATOM     16  H   UNL     1       4.664   0.373   3.900  0.00  0.00    +0.000 HD
ATOM     17  H   UNL     1       3.296   1.255   3.757  0.00  0.00    +0.000 HD
ENDBRANCH  14  15
BRANCH  14  18
ATOM     18  C   UNL     1       6.360   1.886   2.525  0.00  0.00    +0.000 C 
BRANCH  18  19
ATOM     19  C   UNL     1       6.907   2.751   3.654  0.00  0.00    +0.000 C 
BRANCH  19  20
ATOM     20  C   UNL     1       8.432   2.751   3.652  0.00  0.00    +0.000 C 
BRANCH  20  21
ATOM     21  C   UNL     1       8.956   3.609   4.797  0.00  0.00    +0.000 C 
BRANCH  21  22
ATOM     22  N   UNL     1      10.412   3.614   4.790  0.00  0.00    +0.000 NA
ATOM     23  H   UNL     1      10.754   2.663   4.924  0.00  0.00    +0.000 HD
ATOM     24  H   UNL     1      10.749   4.156   5.583  0.00  0.00    +0.000 HD
ENDBRANCH  21  22
ENDBRANCH  20  21
ENDBRANCH  19  20
ENDBRANCH  18  19
ENDBRANCH  14  18
ENDBRANCH   2  14
TORSDOF 10
