REMARK  Name = Lisinopril
REMARK  15 active torsions:
REMARK  status: ('A' for Active; 'I' for Inactive)
REMARK    1  A    between atoms: N_1  and  C_2
REMARK    2  A    between atoms: C_2  and  C_3
REMARK    3  A    between atoms: C_3  and  C_4
REMARK    4  A    between atoms: C_4  and  C_5
REMARK    5  A    between atoms: C_5  and  C_6
REMARK    6  A    between atoms: C_6  and  N_7
REMARK    7  A    between atoms: C_6  and  C_20
REMARK    8  A    between atoms: N_7  and  C_8
REMARK    9  A    between atoms: C_8  and  C_9
REMARK   10  A    between atoms: C_8  and  C_17
REMARK   11  A    between atoms: C_9  and  C_10
REMARK   12  A    between atoms: C_10  and  C_11
REMARK   13  A    between atoms: C_17  and  O_18
REMARK   14  A    between atoms: CA_26  and  C_27
REMARK   15  A    between atoms: C_27  and  O_28
REMARK                            x       y       z     vdW  Elec       q    Type
REMARK                         _______ _______ _______ _____ _____    ______ ____
ROOT
ATOM      1  C   UNK A   1       6.515   2.803  -0.319  0.00  0.00    +0.000 C 
ENDROOT
BRANCH   1   2
ATOM      2  C   UNK A   1       7.276   4.211   0.024  0.00  0.00    +0.000 C 
ATOM      3  O   UNK A   1       6.672   5.095   0.651  0.00  0.00    +0.000 OA
ATOM      4  N   PRO A   2       8.552   4.549  -0.410  0.00  0.00    +0.000 N 
ATOM      5  CD  PRO A   2       9.563   3.738  -1.046  0.00  0.00    +0.000 C 
ATOM      6  CG  PRO A   2      10.794   3.930  -0.232  0.00  0.00    +0.000 C 
ATOM      7  CB  PRO A   2      10.705   5.400   0.133  0.00  0.00    +0.000 C 
ATOM      8  CA  PRO A   2       9.202   5.757   0.152  0.00  0.00    +0.000 C 
BRANCH   8   9
ATOM      9  C   PRO A   2       9.040   7.174  -0.468  0.00  0.00    +0.000 C 
ATOM     10  OXT PRO A   2       9.538   8.163   0.043  0.00  0.00    +0.000 OA
BRANCH   9  11
ATOM     11  O   PRO A   2       8.418   7.286  -1.654  0.00  0.00    +0.000 OA
ATOM     12  H   PRO A   2       8.196   6.446  -2.077  0.00  0.00    +0.000 HD
ENDBRANCH   9  11
ENDBRANCH   8   9
ENDBRANCH   1   2
BRANCH   1  13
ATOM     13  N   UNK A   1       4.975   2.923  -0.389  0.00  0.00    +0.000 NA
ATOM     14  H   UNK A   1       4.658   2.248  -1.084  0.00  0.00    +0.000 HD
BRANCH  13  15
ATOM     15  C   UNK A   1       4.384   4.251  -0.752  0.00  0.00    +0.000 C 
BRANCH  15  16
ATOM     16  C   UNK A   1       2.830   4.249  -0.720  0.00  0.00    +0.000 C 
ATOM     17  O   UNK A   1       2.164   5.226  -0.957  0.00  0.00    +0.000 OA
BRANCH  16  18
ATOM     18  O   UNK A   1       2.267   3.043  -0.447  0.00  0.00    +0.000 OA
ATOM     19  H   UNK A   1       2.941   2.405  -0.151  0.00  0.00    +0.000 HD
ENDBRANCH  16  18
ENDBRANCH  15  16
BRANCH  15  20
ATOM     20  C   UNK A   1       4.737   4.780  -2.171  0.00  0.00    +0.000 C 
BRANCH  20  21
ATOM     21  C   UNK A   1       6.201   5.082  -2.368  0.00  0.00    +0.000 C 
BRANCH  21  22
ATOM     22  C   UNK A   1       6.803   5.504  -3.666  0.00  0.00    +0.000 A 
ATOM     23  C   UNK A   1       7.992   4.971  -4.175  0.00  0.00    +0.000 A 
ATOM     24  C   UNK A   1       8.604   5.364  -5.353  0.00  0.00    +0.000 A 
ATOM     25  C   UNK A   1       8.056   6.425  -6.010  0.00  0.00    +0.000 A 
ATOM     26  C   UNK A   1       7.002   7.118  -5.407  0.00  0.00    +0.000 A 
ATOM     27  C   UNK A   1       6.370   6.657  -4.254  0.00  0.00    +0.000 A 
ENDBRANCH  21  22
ENDBRANCH  20  21
ENDBRANCH  15  20
ENDBRANCH  13  15
ENDBRANCH   1  13
BRANCH   1  28
ATOM     28  C   UNK A   1       6.948   1.750  -1.444  0.00  0.00    +0.000 C 
BRANCH  28  29
ATOM     29  C   UNK A   1       7.468   2.249  -2.788  0.00  0.00    +0.000 C 
BRANCH  29  30
ATOM     30  C   UNK A   1       8.062   1.359  -3.872  0.00  0.00    +0.000 C 
BRANCH  30  31
ATOM     31  C   UNK A   1       8.852   2.172  -4.925  0.00  0.00    +0.000 C 
BRANCH  31  32
ATOM     32  N   UNK A   1       9.247   1.454  -6.120  0.00  0.00    +0.000 NA
ATOM     33  H   UNK A   1       9.689   2.131  -6.752  0.00  0.00    +0.000 HD
ATOM     34  H   UNK A   1       8.380   1.211  -6.605  0.00  0.00    +0.000 HD
ENDBRANCH  31  32
ENDBRANCH  30  31
ENDBRANCH  29  30
ENDBRANCH  28  29
ENDBRANCH   1  28
TORSDOF 15
