REMARK  Name = Lisuride
REMARK  6 active torsions:
REMARK  status: ('A' for Active; 'I' for Inactive)
REMARK    1  A    between atoms: C_15  and  N_19
REMARK    2  A    between atoms: N_17  and  C_18
REMARK    3  A    between atoms: N_22  and  C_23
REMARK    4  A    between atoms: N_22  and  C_25
REMARK    5  A    between atoms: C_23  and  C_24
REMARK    6  A    between atoms: C_25  and  C_26
REMARK                            x       y       z     vdW  Elec       q    Type
REMARK                         _______ _______ _______ _____ _____    ______ ____
ROOT
ATOM      1  C   UNL     1       2.017  -0.022   0.062  0.00  0.00    +0.000 C 
ATOM      2  C   UNL     1       2.434   0.282   1.550  0.00  0.00    +0.000 C 
ATOM      3  C   UNL     1       2.119  -0.874   2.426  0.00  0.00    +0.000 A 
ATOM      4  C   UNL     1       1.840  -0.993   3.767  0.00  0.00    +0.000 A 
ATOM      5  N   UNL     1       1.661  -2.334   4.029  0.00  0.00    +0.000 N 
ATOM      6  C   UNL     1       1.812  -3.072   2.872  0.00  0.00    +0.000 A 
ATOM      7  C   UNL     1       1.737  -4.442   2.619  0.00  0.00    +0.000 A 
ATOM      8  C   UNL     1       1.935  -4.848   1.289  0.00  0.00    +0.000 A 
ATOM      9  C   UNL     1       2.185  -3.928   0.258  0.00  0.00    +0.000 A 
ATOM     10  C   UNL     1       2.265  -2.557   0.522  0.00  0.00    +0.000 A 
ATOM     11  C   UNL     1       2.080  -2.164   1.859  0.00  0.00    +0.000 A 
ATOM     12  C   UNL     1       2.447  -1.437  -0.448  0.00  0.00    +0.000 C 
ATOM     13  C   UNL     1       2.903  -1.622  -1.712  0.00  0.00    +0.000 C 
ATOM     14  C   UNL     1       2.901  -0.510  -2.772  0.00  0.00    +0.000 C 
ATOM     15  C   UNL     1       2.113   0.706  -2.244  0.00  0.00    +0.000 C 
ATOM     16  N   UNL     1       2.508   1.041  -0.855  0.00  0.00    +0.000 NA
ATOM     17  C   UNL     1       1.995   2.364  -0.518  0.00  0.00    +0.000 C 
ATOM     18  H   UNL     1       1.453  -2.723   4.939  0.00  0.00    +0.000 HD
ENDROOT
BRANCH  14  19
ATOM     19  N   UNL     1       4.286  -0.177  -3.076  0.00  0.00    +0.000 N 
ATOM     20  C   UNL     1       4.713   0.831  -3.905  0.00  0.00    +0.000 C 
ATOM     21  O   UNL     1       3.908   1.436  -4.628  0.00  0.00    +0.000 OA
ATOM     22  N   UNL     1       6.085   1.137  -3.939  0.00  0.00    +0.000 N 
ATOM     23  H   UNL     1       4.837  -0.428  -2.296  0.00  0.00    +0.000 HD
BRANCH  22  24
ATOM     24  C   UNL     1       7.193   0.526  -3.179  0.00  0.00    +0.000 C 
ATOM     25  C   UNL     1       6.889  -0.543  -2.166  0.00  0.00    +0.000 C 
ENDBRANCH  22  24
BRANCH  22  26
ATOM     26  C   UNL     1       6.489   2.203  -4.898  0.00  0.00    +0.000 C 
ATOM     27  C   UNL     1       7.990   2.513  -4.993  0.00  0.00    +0.000 C 
ENDBRANCH  22  26
ENDBRANCH  14  19
TORSDOF 3
