REMARK  Name = Lithium citrate
REMARK  6 active torsions:
REMARK  status: ('A' for Active; 'I' for Inactive)
REMARK    1  A    between atoms: O_4  and  C_5
REMARK    2  A    between atoms: C_5  and  C_6
REMARK    3  A    between atoms: C_5  and  C_10
REMARK    4  A    between atoms: C_5  and  C_14
REMARK    5  A    between atoms: C_6  and  C_7
REMARK    6  A    between atoms: C_10  and  C_11
REMARK                            x       y       z     vdW  Elec       q    Type
REMARK                         _______ _______ _______ _____ _____    ______ ____
ROOT
ATOM      1 LI   UNL     1       0.281  -1.396  -1.939  0.00  0.00    +0.000 Li
ENDROOT
TORSDOF 0
REMARK  Name = Lithium citrate
REMARK  6 active torsions:
REMARK  status: ('A' for Active; 'I' for Inactive)
REMARK    1  A    between atoms: O_4  and  C_5
REMARK    2  A    between atoms: C_5  and  C_6
REMARK    3  A    between atoms: C_5  and  C_10
REMARK    4  A    between atoms: C_5  and  C_14
REMARK    5  A    between atoms: C_6  and  C_7
REMARK    6  A    between atoms: C_10  and  C_11
REMARK                            x       y       z     vdW  Elec       q    Type
REMARK                         _______ _______ _______ _____ _____    ______ ____
ROOT
ATOM      1 LI   UNL     2       1.215   0.816  -1.654  0.00  0.00    +0.000 Li
ENDROOT
TORSDOF 0
REMARK  Name = Lithium citrate
REMARK  6 active torsions:
REMARK  status: ('A' for Active; 'I' for Inactive)
REMARK    1  A    between atoms: O_4  and  C_5
REMARK    2  A    between atoms: C_5  and  C_6
REMARK    3  A    between atoms: C_5  and  C_10
REMARK    4  A    between atoms: C_5  and  C_14
REMARK    5  A    between atoms: C_6  and  C_7
REMARK    6  A    between atoms: C_10  and  C_11
REMARK                            x       y       z     vdW  Elec       q    Type
REMARK                         _______ _______ _______ _____ _____    ______ ____
ROOT
ATOM      1 LI   UNL     3       0.141   1.349   1.384  0.00  0.00    +0.000 Li
ENDROOT
TORSDOF 0
REMARK  Name = Lithium citrate
REMARK  6 active torsions:
REMARK  status: ('A' for Active; 'I' for Inactive)
REMARK    1  A    between atoms: O_4  and  C_5
REMARK    2  A    between atoms: C_5  and  C_6
REMARK    3  A    between atoms: C_5  and  C_10
REMARK    4  A    between atoms: C_5  and  C_14
REMARK    5  A    between atoms: C_6  and  C_7
REMARK    6  A    between atoms: C_10  and  C_11
REMARK                            x       y       z     vdW  Elec       q    Type
REMARK                         _______ _______ _______ _____ _____    ______ ____
ROOT
ATOM      1  C   UNL     4       2.518  -0.138   0.087  0.00  0.00    +0.000 C 
ENDROOT
BRANCH   1   2
ATOM      2  C   UNL     4       2.933  -0.597  -1.345  0.00  0.00    +0.000 C 
ATOM      3  O   UNL     4       1.866  -0.763  -2.058  0.00  0.00    +0.000 OA
ATOM      4  O   UNL     4       4.135  -0.534  -1.716  0.00  0.00    +0.000 OA
ENDBRANCH   1   2
BRANCH   1   5
ATOM      5  O   UNL     4       0.992  -0.191   0.107  0.00  0.00    +0.000 OA
ATOM      6  H   UNL     4       0.846  -0.538   1.041  0.00  0.00    +0.000 HD
ENDBRANCH   1   5
BRANCH   1   7
ATOM      7  C   UNL     4       2.972   1.340   0.309  0.00  0.00    +0.000 C 
BRANCH   7   8
ATOM      8  C   UNL     4       2.516   2.559  -0.534  0.00  0.00    +0.000 C 
ATOM      9  O   UNL     4       1.569   2.298  -1.344  0.00  0.00    +0.000 OA
ATOM     10  O   UNL     4       2.883   3.689  -0.169  0.00  0.00    +0.000 OA
ENDBRANCH   7   8
ENDBRANCH   1   7
BRANCH   1  11
ATOM     11  C   UNL     4       3.011  -1.146   1.144  0.00  0.00    +0.000 C 
BRANCH  11  12
ATOM     12  C   UNL     4       2.353  -0.823   2.505  0.00  0.00    +0.000 C 
ATOM     13  O   UNL     4       1.341  -0.016   2.403  0.00  0.00    +0.000 OA
ATOM     14  O   UNL     4       2.699  -1.530   3.476  0.00  0.00    +0.000 OA
ENDBRANCH  11  12
ENDBRANCH   1  11
TORSDOF 6
