REMARK  Name = Lithium carbonate
REMARK  0 active torsions:
REMARK  status: ('A' for Active; 'I' for Inactive)
REMARK                            x       y       z     vdW  Elec       q    Type
REMARK                         _______ _______ _______ _____ _____    ______ ____
ROOT
ATOM      1 LI   UNL     1       1.533   0.489  -1.610  0.00  0.00    +0.000 Li
ENDROOT
TORSDOF 0
REMARK  Name = Lithium carbonate
REMARK  0 active torsions:
REMARK  status: ('A' for Active; 'I' for Inactive)
REMARK                            x       y       z     vdW  Elec       q    Type
REMARK                         _______ _______ _______ _____ _____    ______ ____
ROOT
ATOM      1 LI   UNL     1       0.741  -1.184   0.615  0.00  0.00    +0.000 Li
ENDROOT
TORSDOF 0
REMARK  Name = Lithium carbonate
REMARK  0 active torsions:
REMARK  status: ('A' for Active; 'I' for Inactive)
REMARK                            x       y       z     vdW  Elec       q    Type
REMARK                         _______ _______ _______ _____ _____    ______ ____
ROOT
ATOM      1  O   UNL     1       1.159   0.553   0.249  0.00  0.00    +0.000 OA
ATOM      2  C   UNL     1       2.364   0.315   0.247  0.00  0.00    +0.000 C 
ATOM      3  O   UNL     1       2.534  -0.621   0.993  0.00  0.00    +0.000 OA
ATOM      4  O   UNL     1       3.039   0.581  -0.749  0.00  0.00    +0.000 OA
ENDROOT
TORSDOF 0
