REMARK  Name = Lodoxamide
REMARK  7 active torsions:
REMARK  status: ('A' for Active; 'I' for Inactive)
REMARK    1  A    between atoms: O_1  and  C_2
REMARK    2  A    between atoms: C_2  and  C_4
REMARK    3  A    between atoms: N_6  and  C_7
REMARK    4  A    between atoms: C_9  and  C_20
REMARK    5  A    between atoms: C_11  and  N_12
REMARK    6  A    between atoms: C_13  and  C_15
REMARK    7  A    between atoms: C_15  and  O_16
REMARK                            x       y       z     vdW  Elec       q    Type
REMARK                         _______ _______ _______ _____ _____    ______ ____
ROOT
ATOM      1  C   UNL     1       5.242  -2.384  -0.545  0.00  0.00    +0.000 A 
ATOM      2  C   UNL     1       6.385  -2.760   0.162  0.00  0.00    +0.000 A 
ATOM      3  C   UNL     1       7.065  -3.938  -0.186  0.00  0.00    +0.000 A 
ATOM      4  C   UNL     1       6.610  -4.729  -1.273  0.00  0.00    +0.000 A 
ATOM      5  C   UNL     1       5.503  -4.327  -2.073  0.00  0.00    +0.000 A 
ATOM      6  C   UNL     1       4.876  -3.100  -1.714  0.00  0.00    +0.000 A 
ATOM      7 CL   UNL     1       3.953  -2.105  -2.823  0.00  0.00    +0.000 Cl
ENDROOT
BRANCH   1  10
ATOM      8  C   UNL     1       3.087  -1.233  -0.127  0.00  0.00    +0.000 C 
ATOM      9  O   UNL     1       2.342  -2.205  -0.219  0.00  0.00    +0.000 OA
ATOM     10  N   UNL     1       4.491  -1.243  -0.128  0.00  0.00    +0.000 N 
ATOM     11  H   UNL     1       4.980  -0.374   0.067  0.00  0.00    +0.000 HD
BRANCH   8  12
ATOM     12  C   UNL     1       2.420   0.147   0.040  0.00  0.00    +0.000 C 
ATOM     13  O   UNL     1       3.074   1.155   0.233  0.00  0.00    +0.000 OA
BRANCH  12  14
ATOM     14  O   UNL     1       1.074   0.093  -0.027  0.00  0.00    +0.000 OA
ATOM     15  H   UNL     1       0.751  -0.818  -0.219  0.00  0.00    +0.000 HD
ENDBRANCH  12  14
ENDBRANCH   8  12
ENDBRANCH   1  10
BRANCH   5  16
ATOM     16  N   UNL     1       5.141  -5.194  -3.188  0.00  0.00    +0.000 N 
ATOM     17  C   UNL     1       4.009  -5.039  -4.017  0.00  0.00    +0.000 C 
ATOM     18  O   UNL     1       3.119  -4.213  -3.878  0.00  0.00    +0.000 OA
ATOM     19  H   UNL     1       5.722  -6.014  -3.291  0.00  0.00    +0.000 HD
BRANCH  17  20
ATOM     20  C   UNL     1       3.714  -5.970  -5.208  0.00  0.00    +0.000 C 
ATOM     21  O   UNL     1       2.774  -5.715  -5.949  0.00  0.00    +0.000 OA
BRANCH  20  22
ATOM     22  O   UNL     1       4.468  -7.052  -5.381  0.00  0.00    +0.000 OA
ATOM     23  H   UNL     1       5.186  -7.188  -4.754  0.00  0.00    +0.000 HD
ENDBRANCH  20  22
ENDBRANCH  17  20
ENDBRANCH   5  16
BRANCH   3  24
ATOM     24  C   UNL     1       8.207  -4.340   0.593  0.00  0.00    +0.000 C 
ATOM     25  N   UNL     1       9.129  -4.655   1.235  0.00  0.00    +0.000 NA
ENDBRANCH   3  24
TORSDOF 7
