REMARK  Name = Lofexidine
REMARK  4 active torsions:
REMARK  status: ('A' for Active; 'I' for Inactive)
REMARK    1  A    between atoms: C_1  and  C_2
REMARK    2  A    between atoms: C_2  and  O_3
REMARK    3  A    between atoms: C_2  and  C_12
REMARK    4  A    between atoms: O_3  and  C_4
REMARK                            x       y       z     vdW  Elec       q    Type
REMARK                         _______ _______ _______ _____ _____    ______ ____
ROOT
ATOM      1  O   UNL     1       2.818  -1.263   0.700  0.00  0.00    +0.000 OA
ENDROOT
BRANCH   1   2
ATOM      2  C   UNL     1       2.556  -1.210   2.059  0.00  0.00    +0.000 A 
ATOM      3  C   UNL     1       1.263  -1.136   2.622  0.00  0.00    +0.000 A 
ATOM      4 CL   UNL     1      -0.227  -1.415   1.780  0.00  0.00    +0.000 Cl
ATOM      5  C   UNL     1       1.069  -1.076   4.009  0.00  0.00    +0.000 A 
ATOM      6  C   UNL     1       2.120  -1.309   4.877  0.00  0.00    +0.000 A 
ATOM      7  C   UNL     1       3.386  -1.539   4.353  0.00  0.00    +0.000 A 
ATOM      8  C   UNL     1       3.612  -1.458   2.963  0.00  0.00    +0.000 A 
ATOM      9 CL   UNL     1       5.228  -1.761   2.424  0.00  0.00    +0.000 Cl
ENDBRANCH   1   2
BRANCH   1  11
ATOM     10  C   UNL     1       1.136   0.228  -0.288  0.00  0.00    +0.000 C 
ATOM     11  C   UNL     1       2.611  -0.053  -0.063  0.00  0.00    +0.000 C 
BRANCH  11  12
ATOM     12  C   UNL     1       3.146  -0.174  -1.500  0.00  0.00    +0.000 C 
ATOM     13  N   UNL     1       3.551   0.890  -2.172  0.00  0.00    +0.000 NA
ATOM     14  C   UNL     1       3.815   0.366  -3.550  0.00  0.00    +0.000 C 
ATOM     15  C   UNL     1       3.894  -1.159  -3.417  0.00  0.00    +0.000 C 
ATOM     16  N   UNL     1       3.127  -1.337  -2.216  0.00  0.00    +0.000 N 
ATOM     17  H   UNL     1       2.968  -2.241  -1.784  0.00  0.00    +0.000 HD
ENDBRANCH  11  12
ENDBRANCH   1  11
TORSDOF 3
