REMARK  Name = Lomefloxacin
REMARK  6 active torsions:
REMARK  status: ('A' for Active; 'I' for Inactive)
REMARK    1  A    between atoms: C_1  and  C_2
REMARK    2  A    between atoms: C_2  and  N_3
REMARK    3  A    between atoms: C_5  and  C_6
REMARK    4  A    between atoms: C_6  and  O_7
REMARK    5  A    between atoms: C_15  and  N_16
REMARK    6  A    between atoms: C_20  and  C_21
REMARK                            x       y       z     vdW  Elec       q    Type
REMARK                         _______ _______ _______ _____ _____    ______ ____
ROOT
ATOM      1  N   UNL     1       2.948   0.606  -1.199  0.00  0.00    +0.000 N 
ATOM      2  C   UNL     1       3.447  -0.116  -2.281  0.00  0.00    +0.000 A 
ATOM      3  C   UNL     1       3.790   0.379  -3.482  0.00  0.00    +0.000 A 
ATOM      4  C   UNL     1       3.602   1.831  -3.672  0.00  0.00    +0.000 A 
ATOM      5  O   UNL     1       3.887   2.351  -4.749  0.00  0.00    +0.000 OA
ATOM      6  C   UNL     1       3.064   2.631  -2.544  0.00  0.00    +0.000 A 
ATOM      7  C   UNL     1       2.854   4.001  -2.732  0.00  0.00    +0.000 A 
ATOM      8  C   UNL     1       2.323   4.769  -1.697  0.00  0.00    +0.000 A 
ATOM      9  F   UNL     1       2.160   6.084  -1.911  0.00  0.00    +0.000 F 
ATOM     10  C   UNL     1       2.024   4.223  -0.446  0.00  0.00    +0.000 A 
ATOM     11  C   UNL     1       2.281   2.849  -0.288  0.00  0.00    +0.000 A 
ATOM     12  F   UNL     1       1.999   2.336   0.923  0.00  0.00    +0.000 F 
ATOM     13  C   UNL     1       2.764   2.008  -1.320  0.00  0.00    +0.000 A 
ENDROOT
BRANCH  10  14
ATOM     14  N   UNL     1       1.526   4.967   0.604  0.00  0.00    +0.000 N 
ATOM     15  C   UNL     1       2.204   4.993   1.903  0.00  0.00    +0.000 C 
ATOM     16  C   UNL     1       2.515   6.463   2.263  0.00  0.00    +0.000 C 
ATOM     17  N   UNL     1       1.308   7.314   2.280  0.00  0.00    +0.000 NA
ATOM     18  C   UNL     1       0.636   7.247   0.956  0.00  0.00    +0.000 C 
ATOM     19  C   UNL     1      -0.640   8.080   1.023  0.00  0.00    +0.000 C 
ATOM     20  C   UNL     1       0.316   5.790   0.522  0.00  0.00    +0.000 C 
ATOM     21  H   UNL     1       1.578   8.277   2.473  0.00  0.00    +0.000 HD
ENDBRANCH  10  14
BRANCH   1  23
ATOM     22  C   UNL     1       0.925  -0.098   0.051  0.00  0.00    +0.000 C 
ATOM     23  C   UNL     1       2.453  -0.062   0.024  0.00  0.00    +0.000 C 
ENDBRANCH   1  23
BRANCH   3  24
ATOM     24  C   UNL     1       4.309  -0.515  -4.542  0.00  0.00    +0.000 C 
ATOM     25  O   UNL     1       4.462  -1.721  -4.385  0.00  0.00    +0.000 OA
BRANCH  24  26
ATOM     26  O   UNL     1       4.607   0.091  -5.712  0.00  0.00    +0.000 OA
ATOM     27  H   UNL     1       4.444   1.066  -5.725  0.00  0.00    +0.000 HD
ENDBRANCH  24  26
ENDBRANCH   3  24
TORSDOF 4
