REMARK  Name = Lomitapide
REMARK  12 active torsions:
REMARK  status: ('A' for Active; 'I' for Inactive)
REMARK    1  A    between atoms: C_2  and  C_5
REMARK    2  A    between atoms: C_5  and  N_6
REMARK    3  A    between atoms: C_7  and  C_9
REMARK    4  A    between atoms: C_9  and  C_10
REMARK    5  A    between atoms: C_10  and  C_11
REMARK    6  A    between atoms: C_11  and  C_12
REMARK    7  A    between atoms: C_12  and  C_13
REMARK    8  A    between atoms: C_13  and  N_14
REMARK    9  A    between atoms: C_17  and  N_20
REMARK   10  A    between atoms: C_21  and  C_23
REMARK   11  A    between atoms: C_24  and  C_29
REMARK   12  A    between atoms: C_32  and  C_35
REMARK                            x       y       z     vdW  Elec       q    Type
REMARK                         _______ _______ _______ _____ _____    ______ ____
ROOT
ATOM      1  C   UNL     1      10.438   1.657   4.259  0.00  0.00    +0.000 C 
ENDROOT
BRANCH   1   2
ATOM      2  N   UNL     1      10.781   2.859   5.029  0.00  0.00    +0.000 NA
ATOM      3  C   UNL     1      12.237   3.061   5.050  0.00  0.00    +0.000 C 
ATOM      4  C   UNL     1      12.582   4.266   5.921  0.00  0.00    +0.000 C 
ATOM      5  C   UNL     1      11.882   5.539   5.418  0.00  0.00    +0.000 C 
ATOM      6  C   UNL     1      10.385   5.280   5.319  0.00  0.00    +0.000 C 
ATOM      7  C   UNL     1      10.109   4.045   4.485  0.00  0.00    +0.000 C 
BRANCH   5   8
ATOM      8  N   UNL     1      12.421   5.999   4.135  0.00  0.00    +0.000 N 
ATOM      9  C   UNL     1      13.749   6.337   4.000  0.00  0.00    +0.000 C 
ATOM     10  O   UNL     1      14.545   6.358   4.939  0.00  0.00    +0.000 OA
ATOM     11  H   UNL     1      11.828   5.978   3.314  0.00  0.00    +0.000 HD
BRANCH   9  12
ATOM     12  C   UNL     1      14.215   6.690   2.639  0.00  0.00    +0.000 A 
ATOM     13  C   UNL     1      15.431   6.180   2.139  0.00  0.00    +0.000 A 
ATOM     14  C   UNL     1      15.925   6.714   0.932  0.00  0.00    +0.000 A 
ATOM     15  C   UNL     1      15.184   7.629   0.188  0.00  0.00    +0.000 A 
ATOM     16  C   UNL     1      13.960   8.081   0.669  0.00  0.00    +0.000 A 
ATOM     17  C   UNL     1      13.482   7.630   1.900  0.00  0.00    +0.000 A 
BRANCH  13  18
ATOM     18  C   UNL     1      16.140   5.028   2.718  0.00  0.00    +0.000 A 
ATOM     19  C   UNL     1      17.511   5.091   3.000  0.00  0.00    +0.000 A 
ATOM     20  C   UNL     1      18.222   3.939   3.331  0.00  0.00    +0.000 A 
ATOM     21  C   UNL     1      17.557   2.716   3.500  0.00  0.00    +0.000 A 
ATOM     22  C   UNL     1      16.183   2.647   3.248  0.00  0.00    +0.000 A 
ATOM     23  C   UNL     1      15.487   3.790   2.852  0.00  0.00    +0.000 A 
BRANCH  21  24
ATOM     24  C   UNL     1      18.319   1.523   4.012  0.00  0.00    +0.000 C 
ATOM     25  F   UNL     1      19.333   1.149   3.184  0.00  0.00    +0.000 F 
ATOM     26  F   UNL     1      18.893   1.768   5.222  0.00  0.00    +0.000 F 
ATOM     27  F   UNL     1      17.546   0.414   4.184  0.00  0.00    +0.000 F 
ENDBRANCH  21  24
ENDBRANCH  13  18
ENDBRANCH   9  12
ENDBRANCH   5   8
ENDBRANCH   1   2
BRANCH   1  28
ATOM     28  C   UNL     1       8.921   1.488   4.193  0.00  0.00    +0.000 C 
BRANCH  28  29
ATOM     29  C   UNL     1       8.538   0.278   3.384  0.00  0.00    +0.000 C 
BRANCH  29  30
ATOM     30  C   UNL     1       7.010   0.191   3.293  0.00  0.00    +0.000 C 
BRANCH  30  31
ATOM     31  C   UNL     1       6.527  -1.014   2.469  0.00  0.00    +0.000 C 
ATOM     32  C   UNL     1       7.107  -2.325   3.019  0.00  0.00    +0.000 A 
ATOM     33  C   UNL     1       6.939  -2.876   4.285  0.00  0.00    +0.000 A 
ATOM     34  C   UNL     1       7.591  -4.072   4.577  0.00  0.00    +0.000 A 
ATOM     35  C   UNL     1       8.417  -4.684   3.622  0.00  0.00    +0.000 A 
ATOM     36  C   UNL     1       8.605  -4.111   2.358  0.00  0.00    +0.000 A 
ATOM     37  C   UNL     1       7.941  -2.933   2.056  0.00  0.00    +0.000 A 
ATOM     38  C   UNL     1       7.955  -2.119   0.857  0.00  0.00    +0.000 A 
ATOM     39  C   UNL     1       8.634  -2.285  -0.339  0.00  0.00    +0.000 A 
ATOM     40  C   UNL     1       8.475  -1.322  -1.343  0.00  0.00    +0.000 A 
ATOM     41  C   UNL     1       7.672  -0.191  -1.140  0.00  0.00    +0.000 A 
ATOM     42  C   UNL     1       7.030   0.005   0.078  0.00  0.00    +0.000 A 
ATOM     43  C   UNL     1       7.140  -0.983   1.055  0.00  0.00    +0.000 A 
BRANCH  31  45
ATOM     44  N   UNL     1       4.317  -0.566   1.395  0.00  0.00    +0.000 N 
ATOM     45  C   UNL     1       4.979  -1.032   2.507  0.00  0.00    +0.000 C 
ATOM     46  O   UNL     1       4.343  -1.350   3.514  0.00  0.00    +0.000 OA
ATOM     47  H   UNL     1       4.817  -0.436   0.527  0.00  0.00    +0.000 HD
BRANCH  44  48
ATOM     48  C   UNL     1       2.862  -0.558   1.310  0.00  0.00    +0.000 C 
BRANCH  48  50
ATOM     49  F   UNL     1       0.996  -0.061  -0.080  0.00  0.00    +0.000 F 
ATOM     50  C   UNL     1       2.343  -0.076  -0.040  0.00  0.00    +0.000 C 
ATOM     51  F   UNL     1       2.784  -0.875  -1.039  0.00  0.00    +0.000 F 
ATOM     52  F   UNL     1       2.784   1.176  -0.307  0.00  0.00    +0.000 F 
ENDBRANCH  48  50
ENDBRANCH  44  48
ENDBRANCH  31  45
ENDBRANCH  30  31
ENDBRANCH  29  30
ENDBRANCH  28  29
ENDBRANCH   1  28
TORSDOF 12
