REMARK  Name = Lomustine
REMARK  4 active torsions:
REMARK  status: ('A' for Active; 'I' for Inactive)
REMARK    1  A    between atoms: C_2  and  C_3
REMARK    2  A    between atoms: C_3  and  N_4
REMARK    3  A    between atoms: N_4  and  N_5
REMARK    4  A    between atoms: N_9  and  C_10
REMARK                            x       y       z     vdW  Elec       q    Type
REMARK                         _______ _______ _______ _____ _____    ______ ____
ROOT
ATOM      1  N   UNL     1       4.844   0.542   1.293  0.00  0.00    +0.000 N 
ATOM      2  C   UNL     1       5.433   1.104   2.427  0.00  0.00    +0.000 C 
ATOM      3  O   UNL     1       4.741   1.545   3.351  0.00  0.00    +0.000 OA
ATOM      4  N   UNL     1       6.816   1.150   2.464  0.00  0.00    +0.000 N 
ATOM      5  H   UNL     1       7.353   0.751   1.705  0.00  0.00    +0.000 HD
ENDROOT
BRANCH   4   6
ATOM      6  C   UNL     1       7.559   1.718   3.589  0.00  0.00    +0.000 C 
ATOM      7  C   UNL     1       7.225   3.206   3.767  0.00  0.00    +0.000 C 
ATOM      8  C   UNL     1       7.806   3.810   5.037  0.00  0.00    +0.000 C 
ATOM      9  C   UNL     1       7.446   2.979   6.263  0.00  0.00    +0.000 C 
ATOM     10  C   UNL     1       7.932   1.544   6.105  0.00  0.00    +0.000 C 
ATOM     11  C   UNL     1       7.337   0.892   4.864  0.00  0.00    +0.000 C 
ENDBRANCH   4   6
BRANCH   1  12
ATOM     12  N   UNL     1       5.686   0.043   0.293  0.00  0.00    +0.000 NA
ATOM     13  O   UNL     1       5.145  -0.461  -0.690  0.00  0.00    +0.000 OA
ENDBRANCH   1  12
BRANCH   1  14
ATOM     14  C   UNL     1       3.372   0.525   1.257  0.00  0.00    +0.000 C 
BRANCH  14  16
ATOM     15 CL   UNL     1       0.915  -0.030   0.160  0.00  0.00    +0.000 Cl
ATOM     16  C   UNL     1       2.690  -0.090   0.044  0.00  0.00    +0.000 C 
ENDBRANCH  14  16
ENDBRANCH   1  14
TORSDOF 4
