REMARK  Name = Lonafarnib
REMARK  3 active torsions:
REMARK  status: ('A' for Active; 'I' for Inactive)
REMARK    1  A    between atoms: C_7  and  C_8
REMARK    2  A    between atoms: C_8  and  C_9
REMARK    3  A    between atoms: C_14  and  C_17
REMARK                            x       y       z     vdW  Elec       q    Type
REMARK                         _______ _______ _______ _____ _____    ______ ____
ROOT
ATOM      1  C   UNL     1       0.726  -9.226   5.296  0.00  0.00    +0.000 C 
ATOM      2  O   UNL     1       0.476 -10.394   5.193  0.00  0.00    +0.000 OA
ATOM      3  N   UNL     1       2.006  -8.748   5.202  0.00  0.00    +0.000 N 
ATOM      4  C   UNL     1       3.185  -9.096   4.395  0.00  0.00    +0.000 C 
ATOM      5  C   UNL     1       4.369  -9.708   5.189  0.00  0.00    +0.000 C 
ATOM      6  C   UNL     1       4.780  -8.941   6.468  0.00  0.00    +0.000 C 
ATOM      7  C   UNL     1       3.425  -8.916   7.078  0.00  0.00    +0.000 C 
ATOM      8  C   UNL     1       2.362  -8.150   6.377  0.00  0.00    +0.000 C 
ENDROOT
BRANCH   6   9
ATOM      9  C   UNL     1       5.412  -7.426   6.720  0.00  0.00    +0.000 C 
ATOM     10  C   UNL     1       4.489  -6.200   6.450  0.00  0.00    +0.000 A 
ATOM     11  C   UNL     1       3.415  -5.801   7.338  0.00  0.00    +0.000 A 
ATOM     12  C   UNL     1       3.029  -6.386   8.760  0.00  0.00    +0.000 C 
ATOM     13  C   UNL     1       3.747  -7.557   9.518  0.00  0.00    +0.000 C 
ATOM     14  C   UNL     1       5.224  -7.355   9.388  0.00  0.00    +0.000 A 
ATOM     15  C   UNL     1       6.003  -7.238   8.173  0.00  0.00    +0.000 A 
ATOM     16  C   UNL     1       7.329  -6.800   8.350  0.00  0.00    +0.000 A 
ATOM     17 BR   UNL     1       8.521  -6.423   6.914  0.00  0.00    +0.000 Br
ATOM     18  C   UNL     1       7.841  -6.568   9.640  0.00  0.00    +0.000 A 
ATOM     19  C   UNL     1       7.071  -6.784  10.776  0.00  0.00    +0.000 A 
ATOM     20 CL   UNL     1       7.672  -6.518  12.356  0.00  0.00    +0.000 Cl
ATOM     21  C   UNL     1       5.773  -7.188  10.653  0.00  0.00    +0.000 A 
ATOM     22  C   UNL     1       2.360  -5.057   6.716  0.00  0.00    +0.000 A 
ATOM     23  C   UNL     1       2.403  -4.712   5.356  0.00  0.00    +0.000 A 
ATOM     24 BR   UNL     1       0.924  -3.882   4.522  0.00  0.00    +0.000 Br
ATOM     25  C   UNL     1       3.506  -5.088   4.613  0.00  0.00    +0.000 A 
ATOM     26  N   UNL     1       4.541  -5.800   5.131  0.00  0.00    +0.000 NA
ENDBRANCH   6   9
BRANCH   1  27
ATOM     27  C   UNL     1      -0.312  -8.080   5.635  0.00  0.00    +0.000 C 
BRANCH  27  34
ATOM     28  N   UNL     1      -4.100  -5.368   2.204  0.00  0.00    +0.000 N 
ATOM     29  C   UNL     1      -3.790  -6.691   2.278  0.00  0.00    +0.000 C 
ATOM     30  O   UNL     1      -4.280  -7.492   1.493  0.00  0.00    +0.000 OA
ATOM     31  N   UNL     1      -2.849  -7.002   3.226  0.00  0.00    +0.000 N 
ATOM     32  C   UNL     1      -1.844  -8.007   2.937  0.00  0.00    +0.000 C 
ATOM     33  C   UNL     1      -1.853  -9.128   3.961  0.00  0.00    +0.000 C 
ATOM     34  C   UNL     1      -1.724  -8.591   5.394  0.00  0.00    +0.000 C 
ATOM     35  C   UNL     1      -2.808  -7.523   5.638  0.00  0.00    +0.000 C 
ATOM     36  C   UNL     1      -2.819  -6.425   4.563  0.00  0.00    +0.000 C 
ATOM     37  H   UNL     1      -4.614  -5.114   1.368  0.00  0.00    +0.000 HD
ATOM     38  H   UNL     1      -3.400  -4.704   2.499  0.00  0.00    +0.000 HD
ENDBRANCH  27  34
ENDBRANCH   1  27
TORSDOF 3
