REMARK  Name = Loperamide
REMARK  10 active torsions:
REMARK  status: ('A' for Active; 'I' for Inactive)
REMARK    1  A    between atoms: C_1  and  N_2
REMARK    2  A    between atoms: N_2  and  C_3
REMARK    3  A    between atoms: C_4  and  C_6
REMARK    4  A    between atoms: C_6  and  C_7
REMARK    5  A    between atoms: C_6  and  C_23
REMARK    6  A    between atoms: C_6  and  C_29
REMARK    7  A    between atoms: C_7  and  C_8
REMARK    8  A    between atoms: C_8  and  N_9
REMARK    9  A    between atoms: C_12  and  O_13
REMARK   10  A    between atoms: C_12  and  C_16
REMARK                            x       y       z     vdW  Elec       q    Type
REMARK                         _______ _______ _______ _____ _____    ______ ____
ROOT
ATOM      1  C   UNL     1       4.796  -0.743  -1.156  0.00  0.00    +0.000 C 
ENDROOT
BRANCH   1   2
ATOM      2  C   UNL     1       5.379  -1.421   0.142  0.00  0.00    +0.000 A 
ATOM      3  C   UNL     1       5.316  -2.812   0.316  0.00  0.00    +0.000 A 
ATOM      4  C   UNL     1       5.456  -3.420   1.558  0.00  0.00    +0.000 A 
ATOM      5  C   UNL     1       5.763  -2.655   2.667  0.00  0.00    +0.000 A 
ATOM      6  C   UNL     1       5.970  -1.291   2.516  0.00  0.00    +0.000 A 
ATOM      7  C   UNL     1       5.829  -0.689   1.260  0.00  0.00    +0.000 A 
ENDBRANCH   1   2
BRANCH   1   8
ATOM      8  C   UNL     1       5.292  -1.468  -2.446  0.00  0.00    +0.000 A 
ATOM      9  C   UNL     1       4.858  -2.769  -2.721  0.00  0.00    +0.000 A 
ATOM     10  C   UNL     1       5.416  -3.513  -3.750  0.00  0.00    +0.000 A 
ATOM     11  C   UNL     1       6.220  -2.889  -4.692  0.00  0.00    +0.000 A 
ATOM     12  C   UNL     1       6.581  -1.563  -4.523  0.00  0.00    +0.000 A 
ATOM     13  C   UNL     1       6.201  -0.898  -3.365  0.00  0.00    +0.000 A 
ENDBRANCH   1   8
BRANCH   1  17
ATOM     14  C   UNL     1       1.078  -0.018  -0.061  0.00  0.00    +0.000 C 
ATOM     15  N   UNL     1       2.529   0.024  -0.031  0.00  0.00    +0.000 N 
ATOM     16  C   UNL     1       3.088   0.668   1.149  0.00  0.00    +0.000 C 
ATOM     17  C   UNL     1       3.203  -0.664  -1.059  0.00  0.00    +0.000 C 
ATOM     18  O   UNL     1       2.505  -1.166  -1.968  0.00  0.00    +0.000 OA
ENDBRANCH   1  17
BRANCH   1  19
ATOM     19  C   UNL     1       5.276   0.695  -1.268  0.00  0.00    +0.000 C 
BRANCH  19  20
ATOM     20  C   UNL     1       4.686   1.602  -2.363  0.00  0.00    +0.000 C 
BRANCH  20  21
ATOM     21  N   UNL     1       5.381   2.887  -2.296  0.00  0.00    +0.000 NA
ATOM     22  C   UNL     1       5.707   3.330  -0.943  0.00  0.00    +0.000 C 
ATOM     23  C   UNL     1       6.772   4.380  -1.012  0.00  0.00    +0.000 C 
ATOM     24  C   UNL     1       6.294   5.561  -1.838  0.00  0.00    +0.000 C 
ATOM     25  C   UNL     1       5.700   5.088  -3.185  0.00  0.00    +0.000 C 
ATOM     26  C   UNL     1       4.712   3.940  -3.055  0.00  0.00    +0.000 C 
BRANCH  24  27
ATOM     27  C   UNL     1       7.476   6.503  -2.003  0.00  0.00    +0.000 A 
ATOM     28  C   UNL     1       8.143   7.006  -0.870  0.00  0.00    +0.000 A 
ATOM     29  C   UNL     1       9.256   7.831  -1.011  0.00  0.00    +0.000 A 
ATOM     30  C   UNL     1       9.711   8.164  -2.284  0.00  0.00    +0.000 A 
ATOM     31 CL   UNL     1      11.052   9.219  -2.470  0.00  0.00    +0.000 Cl
ATOM     32  C   UNL     1       9.082   7.659  -3.414  0.00  0.00    +0.000 A 
ATOM     33  C   UNL     1       7.972   6.838  -3.271  0.00  0.00    +0.000 A 
ENDBRANCH  24  27
BRANCH  24  34
ATOM     34  O   UNL     1       5.285   6.258  -1.095  0.00  0.00    +0.000 OA
ATOM     35  H   UNL     1       4.518   5.670  -1.000  0.00  0.00    +0.000 HD
ENDBRANCH  24  34
ENDBRANCH  20  21
ENDBRANCH  19  20
ENDBRANCH   1  19
TORSDOF 8
