REMARK  Name = Lopinavir
REMARK  20 active torsions:
REMARK  status: ('A' for Active; 'I' for Inactive)
REMARK    1  A    between atoms: C_1  and  C_2
REMARK    2  A    between atoms: C_2  and  C_3
REMARK    3  A    between atoms: C_2  and  C_4
REMARK    4  A    between atoms: C_4  and  N_5
REMARK    5  A    between atoms: C_4  and  C_12
REMARK    6  A    between atoms: N_14  and  C_15
REMARK    7  A    between atoms: C_15  and  C_16
REMARK    8  A    between atoms: C_15  and  C_40
REMARK    9  A    between atoms: C_16  and  C_17
REMARK   10  A    between atoms: C_17  and  O_18
REMARK   11  A    between atoms: C_17  and  C_19
REMARK   12  A    between atoms: C_19  and  C_20
REMARK   13  A    between atoms: C_19  and  N_27
REMARK   14  A    between atoms: C_20  and  C_21
REMARK   15  A    between atoms: C_28  and  C_30
REMARK   16  A    between atoms: C_30  and  O_31
REMARK   17  A    between atoms: O_31  and  C_32
REMARK   18  A    between atoms: C_33  and  C_34
REMARK   19  A    between atoms: C_38  and  C_39
REMARK   20  A    between atoms: C_40  and  C_41
REMARK                            x       y       z     vdW  Elec       q    Type
REMARK                         _______ _______ _______ _____ _____    ______ ____
ROOT
ATOM      1  C   UNL     1       2.809   0.876   1.103  0.00  0.00    +0.000 C 
ENDROOT
BRANCH   1   2
ATOM      2  C   UNL     1       2.608   1.642  -0.189  0.00  0.00    +0.000 C 
BRANCH   2   3
ATOM      3  O   UNL     1       1.216   1.746  -0.372  0.00  0.00    +0.000 OA
ATOM      4  H   UNL     1       0.889   2.358   0.300  0.00  0.00    +0.000 HD
ENDBRANCH   2   3
BRANCH   2   5
ATOM      5  C   UNL     1       3.244   3.014  -0.449  0.00  0.00    +0.000 C 
BRANCH   5   6
ATOM      6  N   UNL     1       2.721   3.981   0.557  0.00  0.00    +0.000 N 
ATOM      7  C   UNL     1       1.362   4.281   0.649  0.00  0.00    +0.000 C 
ATOM      8  O   UNL     1       0.545   4.006  -0.225  0.00  0.00    +0.000 OA
ATOM      9  H   UNL     1       3.352   4.359   1.251  0.00  0.00    +0.000 HD
BRANCH   7  10
ATOM     10  C   UNL     1       0.900   4.886   1.945  0.00  0.00    +0.000 C 
BRANCH  10  11
ATOM     11  O   UNL     1      -0.516   4.810   2.048  0.00  0.00    +0.000 OA
BRANCH  11  12
ATOM     12  C   UNL     1      -1.208   5.668   2.861  0.00  0.00    +0.000 A 
ATOM     13  C   UNL     1      -2.434   5.179   3.374  0.00  0.00    +0.000 A 
ATOM     14  C   UNL     1      -2.811   3.718   3.340  0.00  0.00    +0.000 C 
ATOM     15  C   UNL     1      -3.309   6.057   4.039  0.00  0.00    +0.000 A 
ATOM     16  C   UNL     1      -2.929   7.368   4.301  0.00  0.00    +0.000 A 
ATOM     17  C   UNL     1      -1.701   7.831   3.850  0.00  0.00    +0.000 A 
ATOM     18  C   UNL     1      -0.840   7.001   3.121  0.00  0.00    +0.000 A 
ATOM     19  C   UNL     1       0.445   7.617   2.675  0.00  0.00    +0.000 C 
ENDBRANCH  11  12
ENDBRANCH  10  11
ENDBRANCH   7  10
ENDBRANCH   5   6
BRANCH   5  20
ATOM     20  C   UNL     1       4.794   2.975  -0.581  0.00  0.00    +0.000 C 
BRANCH  20  21
ATOM     21  C   UNL     1       5.464   1.777  -1.260  0.00  0.00    +0.000 A 
ATOM     22  C   UNL     1       4.836   0.812  -2.053  0.00  0.00    +0.000 A 
ATOM     23  C   UNL     1       5.475  -0.388  -2.395  0.00  0.00    +0.000 A 
ATOM     24  C   UNL     1       6.803  -0.583  -2.131  0.00  0.00    +0.000 A 
ATOM     25  C   UNL     1       7.506   0.464  -1.571  0.00  0.00    +0.000 A 
ATOM     26  C   UNL     1       6.844   1.616  -1.113  0.00  0.00    +0.000 A 
ENDBRANCH  20  21
ENDBRANCH   5  20
ENDBRANCH   2   5
ENDBRANCH   1   2
BRANCH   1  27
ATOM     27  C   UNL     1       2.324  -0.568   0.766  0.00  0.00    +0.000 C 
BRANCH  27  30
ATOM     28  C   UNL     1       3.410  -2.521   1.869  0.00  0.00    +0.000 C 
ATOM     29  O   UNL     1       3.493  -2.958   3.021  0.00  0.00    +0.000 OA
ATOM     30  N   UNL     1       2.570  -1.453   1.841  0.00  0.00    +0.000 N 
ATOM     31  H   UNL     1       2.057  -1.327   2.706  0.00  0.00    +0.000 HD
BRANCH  28  32
ATOM     32  C   UNL     1       4.286  -3.059   0.568  0.00  0.00    +0.000 C 
BRANCH  32  33
ATOM     33  N   UNL     1       5.036  -4.358   0.870  0.00  0.00    +0.000 N 
ATOM     34  C   UNL     1       5.800  -4.947  -0.257  0.00  0.00    +0.000 C 
ATOM     35  C   UNL     1       6.818  -5.930   0.219  0.00  0.00    +0.000 C 
ATOM     36  C   UNL     1       6.133  -6.969   1.072  0.00  0.00    +0.000 C 
ATOM     37  N   UNL     1       5.283  -6.365   2.042  0.00  0.00    +0.000 N 
ATOM     38  C   UNL     1       4.498  -5.275   1.802  0.00  0.00    +0.000 C 
ATOM     39  O   UNL     1       3.464  -5.242   2.403  0.00  0.00    +0.000 OA
ATOM     40  H   UNL     1       4.857  -6.926   2.772  0.00  0.00    +0.000 HD
ENDBRANCH  32  33
BRANCH  32  42
ATOM     41  C   UNL     1       2.913  -2.223  -1.676  0.00  0.00    +0.000 C 
ATOM     42  C   UNL     1       3.672  -3.290  -0.862  0.00  0.00    +0.000 C 
ATOM     43  C   UNL     1       2.944  -4.603  -0.747  0.00  0.00    +0.000 C 
ENDBRANCH  32  42
ENDBRANCH  28  32
ENDBRANCH  27  30
BRANCH  27  44
ATOM     44  C   UNL     1       0.767  -0.733   0.144  0.00  0.00    +0.000 C 
BRANCH  44  45
ATOM     45  C   UNL     1       0.061  -2.058  -0.306  0.00  0.00    +0.000 A 
ATOM     46  C   UNL     1       0.666  -3.262  -0.110  0.00  0.00    +0.000 A 
ATOM     47  C   UNL     1       0.324  -4.501  -0.759  0.00  0.00    +0.000 A 
ATOM     48  C   UNL     1      -0.755  -4.636  -1.551  0.00  0.00    +0.000 A 
ATOM     49  C   UNL     1      -1.511  -3.492  -1.628  0.00  0.00    +0.000 A 
ATOM     50  C   UNL     1      -1.100  -2.220  -1.055  0.00  0.00    +0.000 A 
ENDBRANCH  44  45
ENDBRANCH  27  44
ENDBRANCH   1  27
TORSDOF 16
