REMARK  Name = Loracarbef
REMARK  6 active torsions:
REMARK  status: ('A' for Active; 'I' for Inactive)
REMARK    1  A    between atoms: N_1  and  CA_2
REMARK    2  A    between atoms: CA_2  and  C_3
REMARK    3  A    between atoms: CA_2  and  C_19
REMARK    4  A    between atoms: N_5  and  CA_6
REMARK    5  A    between atoms: CA_12  and  C_16
REMARK    6  A    between atoms: C_16  and  O_17
REMARK                            x       y       z     vdW  Elec       q    Type
REMARK                         _______ _______ _______ _____ _____    ______ ____
ROOT
ATOM      1  C   UNL     1       3.028  -0.708   1.180  0.00  0.00    +0.000 C 
ATOM      2  O   UNL     1       3.792  -1.669   1.148  0.00  0.00    +0.000 OA
ATOM      3  N   UNL     1       2.636  -0.196   2.396  0.00  0.00    +0.000 N 
ATOM      4  H   UNL     1       2.127   0.677   2.387  0.00  0.00    +0.000 HD
ENDROOT
BRANCH   3   5
ATOM      5  CA  UNL     1       3.135  -0.835   3.652  0.00  0.00    +0.000 C 
ATOM      6  C   UNL     1       2.541  -0.251   4.966  0.00  0.00    +0.000 C 
ATOM      7  C   UNL     1       1.584   0.914   4.906  0.00  0.00    +0.000 C 
ATOM      8  C   UNL     1       0.677   0.853   6.121  0.00  0.00    +0.000 C 
ATOM      9  C   UNL     1       0.133  -0.526   6.404  0.00  0.00    +0.000 C 
ATOM     10 CL   UNL     1      -1.303  -0.421   7.376  0.00  0.00    +0.000 Cl
ATOM     11  CA  UNL     1       0.698  -1.660   5.921  0.00  0.00    +0.000 C 
ATOM     12  N   UNL     1       1.827  -1.519   5.141  0.00  0.00    +0.000 N 
ATOM     13  C   UNL     1       2.403  -2.170   4.110  0.00  0.00    +0.000 C 
ATOM     14  O   UNL     1       2.224  -3.313   3.739  0.00  0.00    +0.000 OA
BRANCH  11  15
ATOM     15  C   UNL     1       0.086  -3.006   6.253  0.00  0.00    +0.000 C 
ATOM     16  OXT UNL     1      -0.898  -3.152   6.964  0.00  0.00    +0.000 OA
BRANCH  15  17
ATOM     17  O   UNL     1       0.727  -4.099   5.794  0.00  0.00    +0.000 OA
ATOM     18  H   UNL     1       1.433  -3.972   5.128  0.00  0.00    +0.000 HD
ENDBRANCH  15  17
ENDBRANCH  11  15
ENDBRANCH   3   5
BRANCH   1  19
ATOM     19  CA  UNL     1       2.463   0.031  -0.073  0.00  0.00    +0.000 C 
BRANCH  19  20
ATOM     20  C   UNL     1       2.907  -0.670  -1.339  0.00  0.00    +0.000 A 
ATOM     21  C   UNL     1       2.603  -2.031  -1.519  0.00  0.00    +0.000 A 
ATOM     22  C   UNL     1       3.115  -2.739  -2.597  0.00  0.00    +0.000 A 
ATOM     23  C   UNL     1       3.850  -2.070  -3.569  0.00  0.00    +0.000 A 
ATOM     24  C   UNL     1       4.138  -0.712  -3.422  0.00  0.00    +0.000 A 
ATOM     25  C   UNL     1       3.682  -0.013  -2.302  0.00  0.00    +0.000 A 
ENDBRANCH  19  20
BRANCH  19  26
ATOM     26  N   UNL     1       0.989   0.105  -0.030  0.00  0.00    +0.000 NA
ATOM     27  H1  UNL     1       0.651   0.532   0.823  0.00  0.00    +0.000 HD
ATOM     28  H2  UNL     1       0.618  -0.846  -0.055  0.00  0.00    +0.000 HD
ENDBRANCH  19  26
ENDBRANCH   1  19
TORSDOF 6
