REMARK  Name = Lorazepam
REMARK  2 active torsions:
REMARK  status: ('A' for Active; 'I' for Inactive)
REMARK    1  A    between atoms: O_1  and  C_2
REMARK    2  A    between atoms: C_4  and  C_5
REMARK                            x       y       z     vdW  Elec       q    Type
REMARK                         _______ _______ _______ _____ _____    ______ ____
ROOT
ATOM      1  C   UNL     1       2.467  -0.013   0.078  0.00  0.00    +0.000 C 
ATOM      2  N   UNL     1       2.945  -1.210   0.777  0.00  0.00    +0.000 NA
ATOM      3  C   UNL     1       4.214  -1.450   0.831  0.00  0.00    +0.000 C 
ATOM      4  C   UNL     1       5.280  -0.642   0.163  0.00  0.00    +0.000 A 
ATOM      5  C   UNL     1       5.297   0.760   0.218  0.00  0.00    +0.000 A 
ATOM      6  N   UNL     1       4.296   1.528   0.821  0.00  0.00    +0.000 N 
ATOM      7  C   UNL     1       2.952   1.257   0.832  0.00  0.00    +0.000 C 
ATOM      8  O   UNL     1       2.201   2.103   1.338  0.00  0.00    +0.000 OA
ATOM      9  C   UNL     1       6.389   1.460  -0.310  0.00  0.00    +0.000 A 
ATOM     10  C   UNL     1       7.445   0.774  -0.912  0.00  0.00    +0.000 A 
ATOM     11  C   UNL     1       7.438  -0.616  -0.941  0.00  0.00    +0.000 A 
ATOM     12 CL   UNL     1       8.760  -1.468  -1.635  0.00  0.00    +0.000 Cl
ATOM     13  C   UNL     1       6.369  -1.327  -0.403  0.00  0.00    +0.000 A 
ATOM     14  H   UNL     1       4.512   2.457   1.163  0.00  0.00    +0.000 HD
ENDROOT
BRANCH   3  15
ATOM     15  C   UNL     1       4.668  -2.618   1.653  0.00  0.00    +0.000 A 
ATOM     16  C   UNL     1       4.160  -3.896   1.372  0.00  0.00    +0.000 A 
ATOM     17  C   UNL     1       4.518  -4.980   2.181  0.00  0.00    +0.000 A 
ATOM     18  C   UNL     1       5.455  -4.815   3.201  0.00  0.00    +0.000 A 
ATOM     19  C   UNL     1       6.032  -3.566   3.420  0.00  0.00    +0.000 A 
ATOM     20  C   UNL     1       5.595  -2.456   2.696  0.00  0.00    +0.000 A 
ATOM     21 CL   UNL     1       6.198  -0.915   3.199  0.00  0.00    +0.000 Cl
ENDBRANCH   3  15
BRANCH   1  22
ATOM     22  O   UNL     1       1.056   0.016  -0.074  0.00  0.00    +0.000 OA
ATOM     23  H   UNL     1       0.809  -0.898  -0.274  0.00  0.00    +0.000 HD
ENDBRANCH   1  22
TORSDOF 2
