REMARK  Name = Loratadine
REMARK  3 active torsions:
REMARK  status: ('A' for Active; 'I' for Inactive)
REMARK    1  A    between atoms: C_1  and  C_2
REMARK    2  A    between atoms: C_2  and  O_3
REMARK    3  A    between atoms: O_3  and  C_4
REMARK                            x       y       z     vdW  Elec       q    Type
REMARK                         _______ _______ _______ _____ _____    ______ ____
ROOT
ATOM      1  C   UNL     1       4.420  -1.233   1.208  0.00  0.00    +0.000 C 
ATOM      2  O   UNL     1       5.188  -0.450   0.647  0.00  0.00    +0.000 OA
ATOM      3  N   UNL     1       4.833  -2.104   2.205  0.00  0.00    +0.000 N 
ATOM      4  C   UNL     1       5.985  -1.763   3.039  0.00  0.00    +0.000 C 
ATOM      5  C   UNL     1       5.591  -1.894   4.521  0.00  0.00    +0.000 C 
ATOM      6  C   UNL     1       5.158  -3.329   4.830  0.00  0.00    +0.000 C 
ATOM      7  C   UNL     1       3.959  -3.676   3.929  0.00  0.00    +0.000 C 
ATOM      8  C   UNL     1       4.301  -3.452   2.441  0.00  0.00    +0.000 C 
ATOM      9  C   UNL     1       5.733  -4.157   5.755  0.00  0.00    +0.000 C 
ATOM     10  C   UNL     1       6.903  -3.719   6.601  0.00  0.00    +0.000 A 
ATOM     11  C   UNL     1       6.969  -3.872   8.010  0.00  0.00    +0.000 A 
ATOM     12  C   UNL     1       5.906  -4.492   8.896  0.00  0.00    +0.000 C 
ATOM     13  C   UNL     1       4.510  -4.639   8.312  0.00  0.00    +0.000 C 
ATOM     14  C   UNL     1       4.507  -5.708   7.262  0.00  0.00    +0.000 A 
ATOM     15  C   UNL     1       5.109  -5.487   6.021  0.00  0.00    +0.000 A 
ATOM     16  N   UNL     1       5.180  -6.438   5.059  0.00  0.00    +0.000 NA
ATOM     17  C   UNL     1       4.627  -7.640   5.351  0.00  0.00    +0.000 A 
ATOM     18  C   UNL     1       4.013  -7.946   6.555  0.00  0.00    +0.000 A 
ATOM     19  C   UNL     1       3.962  -6.963   7.530  0.00  0.00    +0.000 A 
ATOM     20  C   UNL     1       8.137  -3.471   8.699  0.00  0.00    +0.000 A 
ATOM     21  C   UNL     1       9.214  -2.911   8.025  0.00  0.00    +0.000 A 
ATOM     22 CL   UNL     1      10.611  -2.424   8.898  0.00  0.00    +0.000 Cl
ATOM     23  C   UNL     1       9.165  -2.764   6.649  0.00  0.00    +0.000 A 
ATOM     24  C   UNL     1       8.038  -3.196   5.947  0.00  0.00    +0.000 A 
ENDROOT
BRANCH   1  25
ATOM     25  O   UNL     1       3.066  -1.234   0.983  0.00  0.00    +0.000 OA
BRANCH  25  27
ATOM     26  C   UNL     1       1.075  -0.150   0.041  0.00  0.00    +0.000 C 
ATOM     27  C   UNL     1       2.600  -0.211   0.064  0.00  0.00    +0.000 C 
ENDBRANCH  25  27
ENDBRANCH   1  25
TORSDOF 2
