REMARK  Name = Lorcaserin
REMARK  1 active torsions:
REMARK  status: ('A' for Active; 'I' for Inactive)
REMARK    1  A    between atoms: C_1  and  C_2
REMARK                            x       y       z     vdW  Elec       q    Type
REMARK                         _______ _______ _______ _____ _____    ______ ____
ROOT
ATOM      1  C   UNL     1       2.961   1.082   0.631  0.00  0.00    +0.000 C 
ATOM      2  C   UNL     1       2.609  -0.215  -0.118  0.00  0.00    +0.000 C 
ATOM      3  C   UNL     1       3.097  -0.157  -1.598  0.00  0.00    +0.000 C 
ATOM      4  N   UNL     1       2.312  -0.953  -2.563  0.00  0.00    +0.000 NA
ATOM      5  C   UNL     1       2.372  -2.400  -2.333  0.00  0.00    +0.000 C 
ATOM      6  C   UNL     1       1.667  -2.823  -1.044  0.00  0.00    +0.000 C 
ATOM      7  C   UNL     1       2.634  -2.742   0.111  0.00  0.00    +0.000 A 
ATOM      8  C   UNL     1       3.131  -3.940   0.654  0.00  0.00    +0.000 A 
ATOM      9  C   UNL     1       4.083  -3.912   1.667  0.00  0.00    +0.000 A 
ATOM     10  C   UNL     1       4.532  -2.689   2.145  0.00  0.00    +0.000 A 
ATOM     11 CL   UNL     1       5.710  -2.656   3.401  0.00  0.00    +0.000 Cl
ATOM     12  C   UNL     1       4.054  -1.488   1.607  0.00  0.00    +0.000 A 
ATOM     13  C   UNL     1       3.105  -1.493   0.568  0.00  0.00    +0.000 A 
ATOM     14  H   UNL     1       2.666  -0.767  -3.502  0.00  0.00    +0.000 HD
ENDROOT
TORSDOF 0
