REMARK  Name = Lorlatinib
REMARK  5 active torsions:
REMARK  status: ('A' for Active; 'I' for Inactive)
REMARK    1  A    between atoms: C_1  and  C_2
REMARK    2  A    between atoms: C_5  and  N_6
REMARK    3  A    between atoms: C_12  and  C_13
REMARK    4  A    between atoms: N_15  and  C_16
REMARK    5  A    between atoms: N_20  and  C_21
REMARK                            x       y       z     vdW  Elec       q    Type
REMARK                         _______ _______ _______ _____ _____    ______ ____
ROOT
ATOM      1  C   UNL     1       2.548  -0.697  -0.610  0.00  0.00    +0.000 C 
ATOM      2  C   UNL     1       1.352  -2.378  -0.074  0.00  0.00    +0.000 C 
ATOM      3  O   UNL     1       0.545  -4.402  -0.484  0.00  0.00    +0.000 OA
ATOM      4  C   UNL     1       0.400  -6.447  -0.741  0.00  0.00    +0.000 A 
ATOM      5  C   UNL     1       0.737  -8.279  -1.579  0.00  0.00    +0.000 A 
ATOM      6  N   UNL     1       1.335  -8.580  -2.795  0.00  0.00    +0.000 NA
ATOM      7  C   UNL     1       1.561  -7.400  -3.158  0.00  0.00    +0.000 A 
ATOM      8  C   UNL     1       0.698  -6.340  -2.632  0.00  0.00    +0.000 A 
ATOM      9  C   UNL     1      -0.321  -6.653  -1.749  0.00  0.00    +0.000 A 
ATOM     10  C   UNL     1       1.404  -5.130  -2.549  0.00  0.00    +0.000 A 
ATOM     11  C   UNL     1       1.100  -4.070  -3.403  0.00  0.00    +0.000 A 
ATOM     12  N   UNL     1       1.486  -2.951  -2.717  0.00  0.00    +0.000 N 
ATOM     13  C   UNL     1       1.583  -1.486  -2.916  0.00  0.00    +0.000 C 
ATOM     14  N   UNL     1       2.249  -3.371  -1.721  0.00  0.00    +0.000 NA
ATOM     15  C   UNL     1       2.235  -4.684  -1.446  0.00  0.00    +0.000 A 
ATOM     16  C   UNL     1       2.201  -5.268   0.332  0.00  0.00    +0.000 C 
ATOM     17  N   UNL     1       2.504  -4.291   1.329  0.00  0.00    +0.000 N 
ATOM     18  C   UNL     1       2.737  -4.719   2.663  0.00  0.00    +0.000 C 
ATOM     19  C   UNL     1       3.127  -3.160   0.997  0.00  0.00    +0.000 C 
ATOM     20  O   UNL     1       3.587  -2.751  -0.055  0.00  0.00    +0.000 OA
ATOM     21  C   UNL     1       2.895  -2.159   1.948  0.00  0.00    +0.000 A 
ATOM     22  C   UNL     1       2.256  -1.226   1.338  0.00  0.00    +0.000 A 
ATOM     23  C   UNL     1       3.110   0.122   2.080  0.00  0.00    +0.000 A 
ATOM     24  C   UNL     1       4.047   0.030   3.348  0.00  0.00    +0.000 A 
ATOM     25  F   UNL     1       4.744   0.972   4.056  0.00  0.00    +0.000 F 
ATOM     26  C   UNL     1       4.100  -1.169   3.920  0.00  0.00    +0.000 A 
ATOM     27  C   UNL     1       3.434  -2.117   3.222  0.00  0.00    +0.000 A 
ENDROOT
BRANCH   5  28
ATOM     28  N   UNL     1       0.201 -10.032  -1.970  0.00  0.00    +0.000 N 
ATOM     29  H   UNL     1      -0.493 -10.888  -1.823  0.00  0.00    +0.000 HD
ATOM     30  H   UNL     1       0.726 -10.797  -2.848  0.00  0.00    +0.000 HD
ENDBRANCH   5  28
BRANCH  11  31
ATOM     31  C   UNL     1       0.691  -4.166  -4.754  0.00  0.00    +0.000 C 
ATOM     32  N   UNL     1       0.447  -4.248  -5.885  0.00  0.00    +0.000 NA
ENDBRANCH  11  31
TORSDOF 2
