REMARK  Name = Lormetazepam
REMARK  3 active torsions:
REMARK  status: ('A' for Active; 'I' for Inactive)
REMARK    1  A    between atoms: C_1  and  N_2
REMARK    2  A    between atoms: C_10  and  C_16
REMARK    3  A    between atoms: C_12  and  O_13
REMARK                            x       y       z     vdW  Elec       q    Type
REMARK                         _______ _______ _______ _____ _____    ______ ____
ROOT
ATOM      1  C   UNL     1       0.941   0.065   0.042  0.00  0.00    +0.000 C 
ATOM      2  N   UNL     1       2.399   0.070   0.058  0.00  0.00    +0.000 N 
ATOM      3  C   UNL     1       3.088   1.308   0.187  0.00  0.00    +0.000 A 
ATOM      4  C   UNL     1       4.262   1.475   0.947  0.00  0.00    +0.000 A 
ATOM      5  C   UNL     1       4.838   2.753   1.081  0.00  0.00    +0.000 A 
ATOM      6  C   UNL     1       4.266   3.852   0.449  0.00  0.00    +0.000 A 
ATOM      7 CL   UNL     1       4.976   5.407   0.625  0.00  0.00    +0.000 Cl
ATOM      8  C   UNL     1       3.125   3.699  -0.323  0.00  0.00    +0.000 A 
ATOM      9  C   UNL     1       2.542   2.439  -0.448  0.00  0.00    +0.000 A 
ATOM     10  C   UNL     1       4.874   0.362   1.728  0.00  0.00    +0.000 C 
ATOM     11  N   UNL     1       5.023  -0.848   1.312  0.00  0.00    +0.000 NA
ATOM     12  C   UNL     1       4.571  -1.216  -0.022  0.00  0.00    +0.000 C 
ATOM     13  C   UNL     1       3.021  -1.173  -0.048  0.00  0.00    +0.000 C 
ATOM     14  O   UNL     1       2.358  -2.212  -0.204  0.00  0.00    +0.000 OA
ENDROOT
BRANCH  10  15
ATOM     15  C   UNL     1       5.368   0.653   3.107  0.00  0.00    +0.000 A 
ATOM     16  C   UNL     1       6.715   0.385   3.395  0.00  0.00    +0.000 A 
ATOM     17  C   UNL     1       7.187   0.511   4.703  0.00  0.00    +0.000 A 
ATOM     18  C   UNL     1       6.343   0.991   5.704  0.00  0.00    +0.000 A 
ATOM     19  C   UNL     1       5.029   1.350   5.398  0.00  0.00    +0.000 A 
ATOM     20  C   UNL     1       4.521   1.130   4.115  0.00  0.00    +0.000 A 
ATOM     21 CL   UNL     1       2.833   1.405   3.871  0.00  0.00    +0.000 Cl
ENDBRANCH  10  15
BRANCH  12  22
ATOM     22  O   UNL     1       5.005  -2.525  -0.374  0.00  0.00    +0.000 OA
ATOM     23  H   UNL     1       4.551  -3.095   0.274  0.00  0.00    +0.000 HD
ENDBRANCH  12  22
TORSDOF 2
