REMARK  Name = Lornoxicam
REMARK  4 active torsions:
REMARK  status: ('A' for Active; 'I' for Inactive)
REMARK    1  A    between atoms: C_1  and  N_2
REMARK    2  A    between atoms: C_3  and  C_4
REMARK    3  A    between atoms: N_6  and  C_7
REMARK    4  A    between atoms: C_13  and  O_14
REMARK                            x       y       z     vdW  Elec       q    Type
REMARK                         _______ _______ _______ _____ _____    ______ ____
ROOT
ATOM      1  C   UNL     1       0.758   0.228   0.082  0.00  0.00    +0.000 C 
ATOM      2  N   UNL     1       2.181  -0.038   0.077  0.00  0.00    +0.000 N 
ATOM      3  C   UNL     1       2.880  -1.310   0.034  0.00  0.00    +0.000 C 
ATOM      4  C   UNL     1       4.251  -1.352   0.042  0.00  0.00    +0.000 C 
ATOM      5  C   UNL     1       5.069  -0.172   0.054  0.00  0.00    +0.000 A 
ATOM      6  C   UNL     1       4.632   1.126   0.045  0.00  0.00    +0.000 A 
ATOM      7  C   UNL     1       5.614   2.136   0.059  0.00  0.00    +0.000 A 
ATOM      8  C   UNL     1       6.846   1.552   0.072  0.00  0.00    +0.000 A 
ATOM      9 CL   UNL     1       8.344   2.384   0.084  0.00  0.00    +0.000 Cl
ATOM     10  S   UNL     1       6.800  -0.146   0.070  0.00  0.00    +0.000 S 
ATOM     11  S   UNL     1       2.983   1.429   0.011  0.00  0.00    +0.000 S 
ATOM     12  O   UNL     1       2.755   2.010  -1.303  0.00  0.00    +0.000 OA
ATOM     13  O   UNL     1       2.718   2.149   1.226  0.00  0.00    +0.000 OA
ENDROOT
BRANCH   3  14
ATOM     14  C   UNL     1       2.156  -2.659   0.067  0.00  0.00    +0.000 C 
ATOM     15  O   UNL     1       2.836  -3.691   0.118  0.00  0.00    +0.000 OA
ATOM     16  N   UNL     1       0.790  -2.714  -0.012  0.00  0.00    +0.000 N 
ATOM     17  H   UNL     1       0.196  -2.042  -0.450  0.00  0.00    +0.000 HD
BRANCH  16  18
ATOM     18  C   UNL     1       0.017  -3.847   0.078  0.00  0.00    +0.000 A 
ATOM     19  C   UNL     1       0.337  -4.859   0.950  0.00  0.00    +0.000 A 
ATOM     20  C   UNL     1      -0.478  -5.970   0.944  0.00  0.00    +0.000 A 
ATOM     21  C   UNL     1      -1.569  -6.013   0.076  0.00  0.00    +0.000 A 
ATOM     22  C   UNL     1      -1.845  -4.908  -0.712  0.00  0.00    +0.000 A 
ATOM     23  N   UNL     1      -1.087  -3.801  -0.697  0.00  0.00    +0.000 NA
ENDBRANCH  16  18
ENDBRANCH   3  14
BRANCH   4  24
ATOM     24  O   UNL     1       5.007  -2.517   0.045  0.00  0.00    +0.000 OA
ATOM     25  H   UNL     1       4.409  -3.298   0.046  0.00  0.00    +0.000 HD
ENDBRANCH   4  24
TORSDOF 3
