REMARK  Name = Lorpiprazole
REMARK  5 active torsions:
REMARK  status: ('A' for Active; 'I' for Inactive)
REMARK    1  A    between atoms: C_11  and  C_12
REMARK    2  A    between atoms: C_12  and  C_13
REMARK    3  A    between atoms: C_13  and  N_14
REMARK    4  A    between atoms: N_17  and  C_20
REMARK    5  A    between atoms: C_24  and  C_26
REMARK                            x       y       z     vdW  Elec       q    Type
REMARK                         _______ _______ _______ _____ _____    ______ ____
ROOT
ATOM      1  N   UNL     1       1.935  -6.504  -0.650  0.00  0.00    +0.000 NA
ATOM      2  C   UNL     1       1.786  -7.691   0.250  0.00  0.00    +0.000 C 
ATOM      3  C   UNL     1       1.612  -7.356   1.763  0.00  0.00    +0.000 C 
ATOM      4  N   UNL     1       0.625  -6.279   1.949  0.00  0.00    +0.000 N 
ATOM      5  C   UNL     1       0.634  -5.167   1.014  0.00  0.00    +0.000 C 
ATOM      6  C   UNL     1       0.707  -5.697  -0.436  0.00  0.00    +0.000 C 
ENDROOT
BRANCH   4   7
ATOM      7  C   UNL     1      -0.446  -6.427   2.789  0.00  0.00    +0.000 A 
ATOM      8  C   UNL     1      -0.249  -6.645   4.151  0.00  0.00    +0.000 A 
ATOM      9  C   UNL     1      -1.332  -6.836   5.004  0.00  0.00    +0.000 A 
ATOM     10  C   UNL     1      -2.631  -6.784   4.500  0.00  0.00    +0.000 A 
ATOM     11  C   UNL     1      -2.853  -6.547   3.137  0.00  0.00    +0.000 A 
ATOM     12  C   UNL     1      -1.753  -6.353   2.300  0.00  0.00    +0.000 A 
BRANCH  11  13
ATOM     13  C   UNL     1      -4.244  -6.562   2.568  0.00  0.00    +0.000 C 
ATOM     14  F   UNL     1      -4.868  -7.755   2.773  0.00  0.00    +0.000 F 
ATOM     15  F   UNL     1      -5.050  -5.614   3.119  0.00  0.00    +0.000 F 
ATOM     16  F   UNL     1      -4.287  -6.349   1.222  0.00  0.00    +0.000 F 
ENDBRANCH  11  13
ENDBRANCH   4   7
BRANCH   1  17
ATOM     17  C   UNL     1       3.151  -5.697  -0.322  0.00  0.00    +0.000 C 
BRANCH  17  18
ATOM     18  C   UNL     1       3.041  -4.237  -0.816  0.00  0.00    +0.000 C 
BRANCH  18  27
ATOM     19  C   UNL     1       3.233  -0.380   0.458  0.00  0.00    +0.000 C 
ATOM     20  C   UNL     1       3.209   0.966   1.211  0.00  0.00    +0.000 C 
ATOM     21  C   UNL     1       3.882   1.970   0.268  0.00  0.00    +0.000 C 
ATOM     22  C   UNL     1       4.931   1.144  -0.497  0.00  0.00    +0.000 C 
ATOM     23  C   UNL     1       4.823  -0.146   0.299  0.00  0.00    +0.000 C 
ATOM     24  C   UNL     1       5.236  -1.484  -0.128  0.00  0.00    +0.000 A 
ATOM     25  N   UNL     1       5.801  -2.409   0.642  0.00  0.00    +0.000 NA
ATOM     26  N   UNL     1       5.087  -3.571   0.491  0.00  0.00    +0.000 NA
ATOM     27  C   UNL     1       4.143  -3.358  -0.425  0.00  0.00    +0.000 A 
ATOM     28  N   UNL     1       4.231  -2.066  -0.841  0.00  0.00    +0.000 N 
ATOM     29  C   UNL     1       3.139  -1.091  -0.965  0.00  0.00    +0.000 C 
ENDBRANCH  18  27
ENDBRANCH  17  18
ENDBRANCH   1  17
TORSDOF 5
