REMARK  Name = Losartan
REMARK  10 active torsions:
REMARK  status: ('A' for Active; 'I' for Inactive)
REMARK    1  A    between atoms: C_1  and  C_2
REMARK    2  A    between atoms: C_2  and  C_3
REMARK    3  A    between atoms: C_3  and  C_4
REMARK    4  A    between atoms: C_4  and  C_5
REMARK    5  A    between atoms: C_9  and  C_10
REMARK    6  A    between atoms: C_10  and  O_11
REMARK    7  A    between atoms: N_12  and  C_13
REMARK    8  A    between atoms: C_13  and  C_14
REMARK    9  A    between atoms: C_17  and  C_20
REMARK   10  A    between atoms: C_25  and  C_26
REMARK                            x       y       z     vdW  Elec       q    Type
REMARK                         _______ _______ _______ _____ _____    ______ ____
ROOT
ATOM      1  C   UNL     1       3.498  -3.119   1.337  0.00  0.00    +0.000 A 
ATOM      2  C   UNL     1       3.800  -2.891   2.683  0.00  0.00    +0.000 A 
ATOM      3  C   UNL     1       3.164  -1.814   3.380  0.00  0.00    +0.000 A 
ATOM      4  C   UNL     1       2.319  -0.930   2.739  0.00  0.00    +0.000 A 
ATOM      5  C   UNL     1       1.976  -1.323   1.484  0.00  0.00    +0.000 A 
ATOM      6  C   UNL     1       2.475  -2.423   0.826  0.00  0.00    +0.000 A 
ENDROOT
BRANCH   4   7
ATOM      7  C   UNL     1       1.748   0.356   3.218  0.00  0.00    +0.000 A 
ATOM      8  C   UNL     1       2.651   1.195   3.894  0.00  0.00    +0.000 A 
ATOM      9  C   UNL     1       2.188   2.244   4.675  0.00  0.00    +0.000 A 
ATOM     10  C   UNL     1       0.850   2.612   4.620  0.00  0.00    +0.000 A 
ATOM     11  C   UNL     1      -0.021   1.965   3.744  0.00  0.00    +0.000 A 
ATOM     12  C   UNL     1       0.398   0.831   3.030  0.00  0.00    +0.000 A 
BRANCH  12  13
ATOM     13  C   UNL     1      -0.617   0.235   2.134  0.00  0.00    +0.000 A 
ATOM     14  N   UNL     1      -0.881  -1.077   2.012  0.00  0.00    +0.000 NA
ATOM     15  N   UNL     1      -1.629  -1.081   0.897  0.00  0.00    +0.000 N 
ATOM     16  N   UNL     1      -1.961   0.120   0.410  0.00  0.00    +0.000 NA
ATOM     17  N   UNL     1      -1.334   0.982   1.206  0.00  0.00    +0.000 NA
ATOM     18  H   UNL     1      -1.864  -1.943   0.410  0.00  0.00    +0.000 HD
ENDBRANCH  12  13
ENDBRANCH   4   7
BRANCH   1  19
ATOM     19  C   UNL     1       3.947  -4.183   0.405  0.00  0.00    +0.000 C 
BRANCH  19  25
ATOM     20  C   UNL     1       4.884  -2.657  -1.529  0.00  0.00    +0.000 A 
ATOM     21  N   UNL     1       5.657  -2.914  -2.581  0.00  0.00    +0.000 NA
ATOM     22  C   UNL     1       5.713  -4.282  -2.719  0.00  0.00    +0.000 A 
ATOM     23 CL   UNL     1       6.529  -5.084  -3.987  0.00  0.00    +0.000 Cl
ATOM     24  C   UNL     1       4.980  -4.901  -1.730  0.00  0.00    +0.000 A 
ATOM     25  N   UNL     1       4.613  -3.860  -0.869  0.00  0.00    +0.000 N 
BRANCH  20  26
ATOM     26  C   UNL     1       4.469  -1.242  -1.099  0.00  0.00    +0.000 C 
BRANCH  26  27
ATOM     27  C   UNL     1       3.037  -0.777  -1.519  0.00  0.00    +0.000 C 
BRANCH  27  29
ATOM     28  C   UNL     1       0.982   0.470  -0.798  0.00  0.00    +0.000 C 
ATOM     29  C   UNL     1       2.523   0.480  -0.788  0.00  0.00    +0.000 C 
ENDBRANCH  27  29
ENDBRANCH  26  27
ENDBRANCH  20  26
BRANCH  24  30
ATOM     30  C   UNL     1       4.658  -6.358  -1.610  0.00  0.00    +0.000 C 
BRANCH  30  31
ATOM     31  O   UNL     1       3.781  -6.620  -0.527  0.00  0.00    +0.000 OA
ATOM     32  H   UNL     1       4.329  -6.655   0.274  0.00  0.00    +0.000 HD
ENDBRANCH  30  31
ENDBRANCH  24  30
ENDBRANCH  19  25
ENDBRANCH   1  19
TORSDOF 9
