REMARK  Name = Loteprednol etabonate
REMARK  11 active torsions:
REMARK  status: ('A' for Active; 'I' for Inactive)
REMARK    1  A    between atoms: C_5  and  O_6
REMARK    2  A    between atoms: C_5  and  C_12
REMARK    3  A    between atoms: O_6  and  C_7
REMARK    4  A    between atoms: C_7  and  O_9
REMARK    5  A    between atoms: O_9  and  C_10
REMARK    6  A    between atoms: C_10  and  C_11
REMARK    7  A    between atoms: C_12  and  O_14
REMARK    8  A    between atoms: O_14  and  C_15
REMARK    9  A    between atoms: C_17  and  C_18
REMARK   10  A    between atoms: C_20  and  O_21
REMARK   11  A    between atoms: C_34  and  C_35
REMARK                            x       y       z     vdW  Elec       q    Type
REMARK                         _______ _______ _______ _____ _____    ______ ____
ROOT
ATOM      1  C   UNL     1       1.906   0.028  -0.269  0.00  0.00    +0.000 C 
ATOM      2  C   UNL     1       2.321   0.021  -1.625  0.00  0.00    +0.000 C 
ATOM      3  C   UNL     1       3.308  -0.331  -0.565  0.00  0.00    +0.000 C 
ATOM      4  C   UNL     1       2.556  -0.841   1.299  0.00  0.00    +0.000 C 
ATOM      5  C   UNL     1       2.789  -1.580   0.182  0.00  0.00    +0.000 C 
ATOM      6  C   UNL     1       2.054  -2.781  -0.288  0.00  0.00    +0.000 C 
ATOM      7  C   UNL     1       4.580  -1.461   0.708  0.00  0.00    +0.000 C 
ATOM      8  C   UNL     1       4.894   0.034   1.483  0.00  0.00    +0.000 C 
ATOM      9  C   UNL     1       4.325   1.468   0.860  0.00  0.00    +0.000 C 
ATOM     10  C   UNL     1       2.661   1.465   0.636  0.00  0.00    +0.000 C 
ATOM     11  C   UNL     1       2.168   2.716  -0.063  0.00  0.00    +0.000 C 
ATOM     12  C   UNL     1       2.678   3.974   0.595  0.00  0.00    +0.000 C 
ATOM     13  C   UNL     1       4.158   4.015   0.843  0.00  0.00    +0.000 C 
ATOM     14  C   UNL     1       4.913   5.098   0.583  0.00  0.00    +0.000 C 
ATOM     15  C   UNL     1       6.313   4.959   1.058  0.00  0.00    +0.000 C 
ATOM     16  O   UNL     1       6.830   5.492   2.029  0.00  0.00    +0.000 OA
ATOM     17  C   UNL     1       7.053   3.900   0.284  0.00  0.00    +0.000 C 
ATOM     18  C   UNL     1       6.422   2.938   1.009  0.00  0.00    +0.000 C 
ATOM     19  C   UNL     1       4.857   2.801   1.472  0.00  0.00    +0.000 C 
ATOM     20  C   UNL     1       4.406   2.779   2.943  0.00  0.00    +0.000 C 
ENDROOT
BRANCH   4  21
ATOM     21  C   UNL     1       2.827  -2.288   2.458  0.00  0.00    +0.000 C 
ATOM     22  O   UNL     1       3.358  -3.351   2.130  0.00  0.00    +0.000 OA
BRANCH  21  23
ATOM     23  O   UNL     1       2.378  -2.257   3.785  0.00  0.00    +0.000 OA
BRANCH  23  24
ATOM     24  C   UNL     1       2.728  -3.519   4.550  0.00  0.00    +0.000 C 
ATOM     25 CL   UNL     1       2.099  -3.535   6.233  0.00  0.00    +0.000 Cl
ENDBRANCH  23  24
ENDBRANCH  21  23
ENDBRANCH   4  21
BRANCH   8  26
ATOM     26  O   UNL     1       4.450  -0.148   2.840  0.00  0.00    +0.000 OA
ATOM     27  H   UNL     1       3.573   0.250   3.001  0.00  0.00    +0.000 HD
ENDBRANCH   8  26
BRANCH   4  28
ATOM     28  O   UNL     1       0.918  -0.946   1.566  0.00  0.00    +0.000 OA
BRANCH  28  29
ATOM     29  C   UNL     1       0.006   0.100   1.657  0.00  0.00    +0.000 C 
ATOM     30  O   UNL     1       0.294   1.284   1.655  0.00  0.00    +0.000 OA
BRANCH  29  31
ATOM     31  O   UNL     1      -1.304  -0.296   1.481  0.00  0.00    +0.000 OA
BRANCH  31  32
ATOM     32  C   UNL     1      -2.088   0.822   0.972  0.00  0.00    +0.000 C 
ATOM     33  C   UNL     1      -3.590   0.644   1.084  0.00  0.00    +0.000 C 
ENDBRANCH  31  32
ENDBRANCH  29  31
ENDBRANCH  28  29
ENDBRANCH   4  28
TORSDOF 8
