REMARK  Name = Loteprednol
REMARK  7 active torsions:
REMARK  status: ('A' for Active; 'I' for Inactive)
REMARK    1  A    between atoms: C_5  and  O_6
REMARK    2  A    between atoms: C_5  and  C_7
REMARK    3  A    between atoms: C_7  and  O_9
REMARK    4  A    between atoms: O_9  and  C_10
REMARK    5  A    between atoms: C_12  and  C_13
REMARK    6  A    between atoms: C_15  and  O_16
REMARK    7  A    between atoms: C_29  and  C_30
REMARK                            x       y       z     vdW  Elec       q    Type
REMARK                         _______ _______ _______ _____ _____    ______ ____
ROOT
ATOM      1  C   UNL     1       1.710  -0.105  -0.116  0.00  0.00    +0.000 C 
ATOM      2  C   UNL     1       2.112  -0.117  -1.476  0.00  0.00    +0.000 C 
ATOM      3  C   UNL     1       3.163  -0.483  -0.466  0.00  0.00    +0.000 C 
ATOM      4  C   UNL     1       2.524  -1.052   1.419  0.00  0.00    +0.000 C 
ATOM      5  C   UNL     1       2.638  -1.727   0.260  0.00  0.00    +0.000 C 
ATOM      6  C   UNL     1       1.916  -2.929  -0.211  0.00  0.00    +0.000 C 
ATOM      7  C   UNL     1       4.453  -1.614   0.759  0.00  0.00    +0.000 C 
ATOM      8  C   UNL     1       4.774  -0.112   1.549  0.00  0.00    +0.000 C 
ATOM      9  C   UNL     1       4.166   1.314   0.951  0.00  0.00    +0.000 C 
ATOM     10  C   UNL     1       2.462   1.304   0.769  0.00  0.00    +0.000 C 
ATOM     11  C   UNL     1       1.998   2.550   0.042  0.00  0.00    +0.000 C 
ATOM     12  C   UNL     1       2.544   3.815   0.663  0.00  0.00    +0.000 C 
ATOM     13  C   UNL     1       4.028   3.856   0.902  0.00  0.00    +0.000 C 
ATOM     14  C   UNL     1       4.788   4.936   0.640  0.00  0.00    +0.000 C 
ATOM     15  C   UNL     1       6.191   4.800   1.115  0.00  0.00    +0.000 C 
ATOM     16  O   UNL     1       6.710   5.330   2.087  0.00  0.00    +0.000 OA
ATOM     17  C   UNL     1       6.930   3.746   0.339  0.00  0.00    +0.000 C 
ATOM     18  C   UNL     1       6.296   2.780   1.057  0.00  0.00    +0.000 C 
ATOM     19  C   UNL     1       4.727   2.646   1.534  0.00  0.00    +0.000 C 
ATOM     20  C   UNL     1       4.284   2.628   3.004  0.00  0.00    +0.000 C 
ENDROOT
BRANCH   4  21
ATOM     21  O   UNL     1       1.064  -0.992   1.776  0.00  0.00    +0.000 OA
ATOM     22  H   UNL     1       0.908  -1.224   2.709  0.00  0.00    +0.000 HD
ENDBRANCH   4  21
BRANCH   4  23
ATOM     23  C   UNL     1       2.795  -2.511   2.536  0.00  0.00    +0.000 C 
ATOM     24  O   UNL     1       3.312  -3.576   2.209  0.00  0.00    +0.000 OA
BRANCH  23  25
ATOM     25  O   UNL     1       2.287  -2.457   3.847  0.00  0.00    +0.000 OA
BRANCH  25  26
ATOM     26  C   UNL     1       2.623  -3.700   4.623  0.00  0.00    +0.000 C 
ATOM     27 CL   UNL     1       1.984  -3.696   6.299  0.00  0.00    +0.000 Cl
ENDBRANCH  25  26
ENDBRANCH  23  25
ENDBRANCH   4  23
BRANCH   8  28
ATOM     28  O   UNL     1       4.346  -0.296   2.914  0.00  0.00    +0.000 OA
ATOM     29  H   UNL     1       3.465   0.100   3.067  0.00  0.00    +0.000 HD
ENDBRANCH   8  28
TORSDOF 5
