REMARK  Name = Lovastatin
REMARK  12 active torsions:
REMARK  status: ('A' for Active; 'I' for Inactive)
REMARK    1  A    between atoms: C_3  and  O_24
REMARK    2  A    between atoms: C_5  and  C_6
REMARK    3  A    between atoms: C_11  and  C_12
REMARK    4  A    between atoms: C_13  and  C_14
REMARK    5  A    between atoms: C_14  and  C_15
REMARK    6  A    between atoms: C_15  and  C_16
REMARK    7  A    between atoms: C_18  and  O_19
REMARK    8  A    between atoms: O_24  and  C_25
REMARK    9  A    between atoms: C_25  and  C_27
REMARK   10  A    between atoms: C_27  and  C_28
REMARK   11  A    between atoms: C_27  and  C_29
REMARK   12  A    between atoms: C_29  and  C_30
REMARK                            x       y       z     vdW  Elec       q    Type
REMARK                         _______ _______ _______ _____ _____    ______ ____
ROOT
ATOM      1  C   UNL     1       2.165   0.030  -0.079  0.00  0.00    +0.000 C 
ATOM      2  C   UNL     1       2.599   1.517  -0.177  0.00  0.00    +0.000 C 
ATOM      3  C   UNL     1       2.146   2.223  -1.437  0.00  0.00    +0.000 C 
ATOM      4  C   UNL     1       2.752   1.567  -2.653  0.00  0.00    +0.000 C 
ATOM      5  C   UNL     1       4.122   2.188  -2.915  0.00  0.00    +0.000 C 
ATOM      6  C   UNL     1       2.850   0.063  -2.501  0.00  0.00    +0.000 C 
ATOM      7  C   UNL     1       2.586  -0.640  -1.378  0.00  0.00    +0.000 C 
ATOM      8  C   UNL     1       2.732  -2.082  -1.364  0.00  0.00    +0.000 C 
ATOM      9  C   UNL     1       2.533  -2.835  -0.273  0.00  0.00    +0.000 C 
ATOM     10  C   UNL     1       2.164  -2.281   1.065  0.00  0.00    +0.000 C 
ATOM     11  C   UNL     1       0.656  -2.456   1.305  0.00  0.00    +0.000 C 
ATOM     12  C   UNL     1       2.612  -0.812   1.202  0.00  0.00    +0.000 C 
ENDROOT
BRANCH  12  13
ATOM     13  C   UNL     1       2.103  -0.397   2.627  0.00  0.00    +0.000 C 
BRANCH  13  14
ATOM     14  C   UNL     1       2.649   0.928   2.984  0.00  0.00    +0.000 C 
BRANCH  14  15
ATOM     15  C   UNL     1       2.148   1.745   4.197  0.00  0.00    +0.000 C 
ATOM     16  C   UNL     1       3.005   2.971   4.584  0.00  0.00    +0.000 C 
ATOM     17  C   UNL     1       2.721   3.545   5.911  0.00  0.00    +0.000 C 
ATOM     18  C   UNL     1       3.170   2.437   6.791  0.00  0.00    +0.000 C 
ATOM     19  C   UNL     1       2.555   1.104   6.471  0.00  0.00    +0.000 C 
ATOM     20  O   UNL     1       2.619   0.171   7.298  0.00  0.00    +0.000 OA
ATOM     21  O   UNL     1       1.968   0.869   5.292  0.00  0.00    +0.000 OA
BRANCH  17  22
ATOM     22  O   UNL     1       1.370   3.963   6.016  0.00  0.00    +0.000 OA
ATOM     23  H   UNL     1       0.775   3.306   5.617  0.00  0.00    +0.000 HD
ENDBRANCH  17  22
ENDBRANCH  14  15
ENDBRANCH  13  14
ENDBRANCH  12  13
BRANCH   2  24
ATOM     24  O   UNL     1       3.991   1.738   0.145  0.00  0.00    +0.000 OA
BRANCH  24  25
ATOM     25  C   UNL     1       4.612   2.792   0.738  0.00  0.00    +0.000 C 
ATOM     26  O   UNL     1       5.828   2.724   0.927  0.00  0.00    +0.000 OA
BRANCH  25  27
ATOM     27  C   UNL     1       3.799   4.024   1.222  0.00  0.00    +0.000 C 
ATOM     28  C   UNL     1       2.599   3.604   1.957  0.00  0.00    +0.000 C 
BRANCH  27  29
ATOM     29  C   UNL     1       4.650   4.825   2.291  0.00  0.00    +0.000 C 
ATOM     30  C   UNL     1       3.897   5.903   3.098  0.00  0.00    +0.000 C 
ENDBRANCH  27  29
ENDBRANCH  25  27
ENDBRANCH  24  25
ENDBRANCH   2  24
TORSDOF 8
