REMARK  Name = Loxapine
REMARK  1 active torsions:
REMARK  status: ('A' for Active; 'I' for Inactive)
REMARK    1  A    between atoms: C_1  and  N_2
REMARK                            x       y       z     vdW  Elec       q    Type
REMARK                         _______ _______ _______ _____ _____    ______ ____
ROOT
ATOM      1  C   UNL     1       2.452   0.011   0.065  0.00  0.00    +0.000 C 
ATOM      2  N   UNL     1       1.042   0.012  -0.302  0.00  0.00    +0.000 NA
ATOM      3  C   UNL     1       0.336   1.206   0.229  0.00  0.00    +0.000 C 
ATOM      4  C   UNL     1      -1.172   1.221  -0.155  0.00  0.00    +0.000 C 
ATOM      5  N   UNL     1      -1.793  -0.046   0.277  0.00  0.00    +0.000 N 
ATOM      6  C   UNL     1      -1.108  -1.206  -0.301  0.00  0.00    +0.000 C 
ATOM      7  C   UNL     1       0.355  -1.199   0.198  0.00  0.00    +0.000 C 
ATOM      8  C   UNL     1      -3.088  -0.064   0.800  0.00  0.00    +0.000 C 
ATOM      9  N   UNL     1      -4.032   0.579   0.176  0.00  0.00    +0.000 NA
ATOM     10  C   UNL     1      -5.352   0.705   0.674  0.00  0.00    +0.000 A 
ATOM     11  C   UNL     1      -6.421   0.658  -0.228  0.00  0.00    +0.000 A 
ATOM     12  C   UNL     1      -7.741   0.880   0.194  0.00  0.00    +0.000 A 
ATOM     13  C   UNL     1      -8.012   1.164   1.531  0.00  0.00    +0.000 A 
ATOM     14  C   UNL     1      -6.964   1.219   2.445  0.00  0.00    +0.000 A 
ATOM     15  C   UNL     1      -5.652   0.985   2.013  0.00  0.00    +0.000 A 
ATOM     16  O   UNL     1      -4.665   1.062   2.967  0.00  0.00    +0.000 OA
ATOM     17  C   UNL     1      -4.016  -0.133   3.146  0.00  0.00    +0.000 A 
ATOM     18  C   UNL     1      -3.272  -0.748   2.135  0.00  0.00    +0.000 A 
ATOM     19  C   UNL     1      -2.645  -1.962   2.431  0.00  0.00    +0.000 A 
ATOM     20  C   UNL     1      -2.743  -2.538   3.695  0.00  0.00    +0.000 A 
ATOM     21 CL   UNL     1      -1.943  -4.030   4.001  0.00  0.00    +0.000 Cl
ATOM     22  C   UNL     1      -3.472  -1.914   4.696  0.00  0.00    +0.000 A 
ATOM     23  C   UNL     1      -4.110  -0.707   4.421  0.00  0.00    +0.000 A 
ENDROOT
TORSDOF 0
