REMARK  Name = Loxoprofen
REMARK  6 active torsions:
REMARK  status: ('A' for Active; 'I' for Inactive)
REMARK    1  A    between atoms: C_1  and  C_2
REMARK    2  A    between atoms: C_2  and  C_3
REMARK    3  A    between atoms: C_2  and  C_6
REMARK    4  A    between atoms: C_3  and  O_4
REMARK    5  A    between atoms: C_9  and  C_10
REMARK    6  A    between atoms: C_10  and  C_11
REMARK                            x       y       z     vdW  Elec       q    Type
REMARK                         _______ _______ _______ _____ _____    ______ ____
ROOT
ATOM      1  C   UNL     1       3.058   0.526  -1.320  0.00  0.00    +0.000 A 
ATOM      2  C   UNL     1       3.578  -0.185  -2.400  0.00  0.00    +0.000 A 
ATOM      3  C   UNL     1       4.169   0.471  -3.463  0.00  0.00    +0.000 A 
ATOM      4  C   UNL     1       3.927   1.831  -3.649  0.00  0.00    +0.000 A 
ATOM      5  C   UNL     1       3.253   2.534  -2.655  0.00  0.00    +0.000 A 
ATOM      6  C   UNL     1       2.883   1.908  -1.475  0.00  0.00    +0.000 A 
ENDROOT
BRANCH   1   8
ATOM      7  C   UNL     1       1.080  -0.033   0.040  0.00  0.00    +0.000 C 
ATOM      8  C   UNL     1       2.611  -0.103  -0.017  0.00  0.00    +0.000 C 
BRANCH   8   9
ATOM      9  C   UNL     1       3.079  -1.509   0.361  0.00  0.00    +0.000 C 
ATOM     10  O   UNL     1       2.629  -2.089   1.353  0.00  0.00    +0.000 OA
BRANCH   9  11
ATOM     11  O   UNL     1       4.038  -2.120  -0.357  0.00  0.00    +0.000 OA
ATOM     12  H   UNL     1       4.564  -1.558  -0.953  0.00  0.00    +0.000 HD
ENDBRANCH   9  11
ENDBRANCH   8   9
ENDBRANCH   1   8
BRANCH   4  13
ATOM     13  C   UNL     1       4.340   2.408  -4.970  0.00  0.00    +0.000 C 
BRANCH  13  14
ATOM     14  C   UNL     1       4.078   3.874  -5.304  0.00  0.00    +0.000 C 
ATOM     15  C   UNL     1       2.673   4.238  -5.786  0.00  0.00    +0.000 C 
ATOM     16  C   UNL     1       2.226   5.514  -5.076  0.00  0.00    +0.000 C 
ATOM     17  C   UNL     1       3.363   6.005  -4.196  0.00  0.00    +0.000 C 
ATOM     18  C   UNL     1       4.377   4.895  -4.236  0.00  0.00    +0.000 C 
ATOM     19  O   UNL     1       5.359   4.862  -3.504  0.00  0.00    +0.000 OA
ENDBRANCH  13  14
ENDBRANCH   4  13
TORSDOF 5
