REMARK  Name = Lubiprostone
REMARK  14 active torsions:
REMARK  status: ('A' for Active; 'I' for Inactive)
REMARK    1  A    between atoms: C_6  and  C_7
REMARK    2  A    between atoms: C_7  and  C_8
REMARK    3  A    between atoms: C_8  and  C_9
REMARK    4  A    between atoms: C_9  and  C_10
REMARK    5  A    between atoms: C_10  and  C_11
REMARK    6  A    between atoms: C_11  and  C_12
REMARK    7  A    between atoms: C_12  and  C_13
REMARK    8  A    between atoms: C_13  and  O_14
REMARK    9  A    between atoms: C_20  and  O_21
REMARK   10  A    between atoms: C_20  and  C_23
REMARK   11  A    between atoms: C_23  and  C_26
REMARK   12  A    between atoms: C_26  and  C_27
REMARK   13  A    between atoms: C_27  and  C_28
REMARK   14  A    between atoms: C_28  and  C_29
REMARK                            x       y       z     vdW  Elec       q    Type
REMARK                         _______ _______ _______ _____ _____    ______ ____
ROOT
ATOM      1  C   UNL     1       2.057  -0.060  -0.131  0.00  0.00    +0.000 C 
ATOM      2  C   UNL     1       2.563   1.153   0.656  0.00  0.00    +0.000 C 
ATOM      3  C   UNL     1       2.673   0.566   2.046  0.00  0.00    +0.000 C 
ATOM      4  O   UNL     1       2.753   1.235   3.069  0.00  0.00    +0.000 OA
ATOM      5  C   UNL     1       2.691  -0.947   2.030  0.00  0.00    +0.000 C 
ATOM      6  C   UNL     1       2.768  -1.211   0.548  0.00  0.00    +0.000 C 
ATOM      7  C   UNL     1       2.129  -2.507   0.105  0.00  0.00    +0.000 C 
ATOM      8  C   UNL     1       2.435  -2.631  -1.374  0.00  0.00    +0.000 C 
ATOM      9  C   UNL     1       2.131  -1.344  -2.189  0.00  0.00    +0.000 C 
ATOM     10  O   UNL     1       2.426  -0.094  -1.503  0.00  0.00    +0.000 OA
ENDROOT
BRANCH   9  11
ATOM     11  C   UNL     1       3.021  -1.418  -3.474  0.00  0.00    +0.000 C 
ATOM     12  F   UNL     1       4.339  -1.392  -3.120  0.00  0.00    +0.000 F 
ATOM     13  F   UNL     1       2.830  -2.613  -4.103  0.00  0.00    +0.000 F 
BRANCH  11  14
ATOM     14  C   UNL     1       2.737  -0.288  -4.445  0.00  0.00    +0.000 C 
BRANCH  14  15
ATOM     15  C   UNL     1       3.639  -0.369  -5.668  0.00  0.00    +0.000 C 
BRANCH  15  16
ATOM     16  C   UNL     1       3.340   0.787  -6.614  0.00  0.00    +0.000 C 
ATOM     17  C   UNL     1       4.240   0.724  -7.832  0.00  0.00    +0.000 C 
ENDBRANCH  15  16
ENDBRANCH  14  15
ENDBRANCH  11  14
ENDBRANCH   9  11
BRANCH   9  18
ATOM     18  O   UNL     1       0.756  -1.317  -2.589  0.00  0.00    +0.000 OA
ATOM     19  H   UNL     1       0.201  -1.477  -1.815  0.00  0.00    +0.000 HD
ENDBRANCH   9  18
BRANCH   5  20
ATOM     20  C   UNL     1       3.929  -1.520   2.697  0.00  0.00    +0.000 C 
BRANCH  20  21
ATOM     21  C   UNL     1       3.655  -1.715   4.170  0.00  0.00    +0.000 C 
BRANCH  21  22
ATOM     22  C   UNL     1       4.869  -2.307   4.848  0.00  0.00    +0.000 C 
BRANCH  22  23
ATOM     23  C   UNL     1       4.567  -2.500   6.323  0.00  0.00    +0.000 C 
BRANCH  23  24
ATOM     24  C   UNL     1       5.786  -3.092   7.000  0.00  0.00    +0.000 C 
BRANCH  24  25
ATOM     25  C   UNL     1       5.549  -3.310   8.481  0.00  0.00    +0.000 C 
BRANCH  25  26
ATOM     26  C   UNL     1       6.719  -3.899   9.232  0.00  0.00    +0.000 C 
ATOM     27  O   UNL     1       6.661  -4.128  10.437  0.00  0.00    +0.000 OA
BRANCH  26  28
ATOM     28  O   UNL     1       7.835  -4.170   8.530  0.00  0.00    +0.000 OA
ATOM     29  H   UNL     1       7.832  -3.967   7.577  0.00  0.00    +0.000 HD
ENDBRANCH  26  28
ENDBRANCH  25  26
ENDBRANCH  24  25
ENDBRANCH  23  24
ENDBRANCH  22  23
ENDBRANCH  21  22
ENDBRANCH  20  21
ENDBRANCH   5  20
TORSDOF 13
