REMARK  Name = Lumateperone
REMARK  6 active torsions:
REMARK  status: ('A' for Active; 'I' for Inactive)
REMARK    1  A    between atoms: N_5  and  C_6
REMARK    2  A    between atoms: C_6  and  C_7
REMARK    3  A    between atoms: C_7  and  C_8
REMARK    4  A    between atoms: C_8  and  C_9
REMARK    5  A    between atoms: C_9  and  C_11
REMARK    6  A    between atoms: N_30  and  C_31
REMARK                            x       y       z     vdW  Elec       q    Type
REMARK                         _______ _______ _______ _____ _____    ______ ____
ROOT
ATOM      1  C   UNL     1       2.126  -0.239   0.234  0.00  0.00    +0.000 C 
ATOM      2  C   UNL     1       2.263  -1.724   0.215  0.00  0.00    +0.000 C 
ATOM      3  C   UNL     1       3.666  -2.042   0.644  0.00  0.00    +0.000 C 
ATOM      4  N   UNL     1       4.027  -1.420   1.937  0.00  0.00    +0.000 NA
ATOM      5  C   UNL     1       3.938   0.060   1.903  0.00  0.00    +0.000 C 
ATOM      6  C   UNL     1       2.552   0.564   1.501  0.00  0.00    +0.000 C 
ATOM      7  C   UNL     1       2.696   1.920   0.837  0.00  0.00    +0.000 A 
ATOM      8  C   UNL     1       2.777   3.213   1.255  0.00  0.00    +0.000 A 
ATOM      9  C   UNL     1       2.908   4.149   0.218  0.00  0.00    +0.000 A 
ATOM     10  C   UNL     1       2.790   3.771  -1.202  0.00  0.00    +0.000 A 
ATOM     11  C   UNL     1       2.621   2.431  -1.598  0.00  0.00    +0.000 A 
ATOM     12  C   UNL     1       2.831   1.617  -0.528  0.00  0.00    +0.000 A 
ATOM     13  N   UNL     1       3.118   0.269  -0.690  0.00  0.00    +0.000 N 
ATOM     14  C   UNL     1       3.484  -0.258  -1.979  0.00  0.00    +0.000 C 
ATOM     15  C   UNL     1       2.229   0.145  -2.719  0.00  0.00    +0.000 C 
ATOM     16  N   UNL     1       2.220   1.721  -2.784  0.00  0.00    +0.000 N 
ATOM     17  C   UNL     1       2.660   2.244  -4.068  0.00  0.00    +0.000 C 
ENDROOT
BRANCH   4  18
ATOM     18  C   UNL     1       5.421  -1.766   2.225  0.00  0.00    +0.000 C 
BRANCH  18  19
ATOM     19  C   UNL     1       5.545  -3.278   2.314  0.00  0.00    +0.000 C 
BRANCH  19  20
ATOM     20  C   UNL     1       6.944  -3.699   2.678  0.00  0.00    +0.000 C 
BRANCH  20  21
ATOM     21  C   UNL     1       7.000  -5.224   2.732  0.00  0.00    +0.000 C 
ATOM     22  O   UNL     1       6.090  -5.956   2.456  0.00  0.00    +0.000 OA
BRANCH  21  23
ATOM     23  C   UNL     1       8.324  -5.797   3.067  0.00  0.00    +0.000 A 
ATOM     24  C   UNL     1       8.825  -6.820   2.258  0.00  0.00    +0.000 A 
ATOM     25  C   UNL     1      10.142  -7.237   2.437  0.00  0.00    +0.000 A 
ATOM     26  C   UNL     1      10.851  -6.791   3.548  0.00  0.00    +0.000 A 
ATOM     27  F   UNL     1      12.071  -7.286   3.791  0.00  0.00    +0.000 F 
ATOM     28  C   UNL     1      10.309  -5.855   4.421  0.00  0.00    +0.000 A 
ATOM     29  C   UNL     1       9.066  -5.296   4.137  0.00  0.00    +0.000 A 
ENDBRANCH  21  23
ENDBRANCH  20  21
ENDBRANCH  19  20
ENDBRANCH  18  19
ENDBRANCH   4  18
TORSDOF 5
