REMARK  Name = Lumacaftor
REMARK  7 active torsions:
REMARK  status: ('A' for Active; 'I' for Inactive)
REMARK    1  A    between atoms: C_1  and  C_2
REMARK    2  A    between atoms: C_5  and  N_6
REMARK    3  A    between atoms: C_7  and  C_9
REMARK    4  A    between atoms: C_9  and  C_12
REMARK    5  A    between atoms: C_24  and  C_25
REMARK    6  A    between atoms: C_27  and  C_31
REMARK    7  A    between atoms: C_31  and  O_32
REMARK                            x       y       z     vdW  Elec       q    Type
REMARK                         _______ _______ _______ _____ _____    ______ ____
ROOT
ATOM      1  N   UNL     1      -3.079   0.275  -0.187  0.00  0.00    +0.000 N 
ATOM      2  C   UNL     1      -3.771   1.474  -0.190  0.00  0.00    +0.000 C 
ATOM      3  O   UNL     1      -3.315   2.615  -0.203  0.00  0.00    +0.000 OA
ATOM      4  H   UNL     1      -3.575  -0.605  -0.184  0.00  0.00    +0.000 HD
ENDROOT
BRANCH   1   9
ATOM      5  C   UNL     1       2.548  -0.086  -0.004  0.00  0.00    +0.000 C 
ATOM      6  C   UNL     1       1.052  -0.031   0.034  0.00  0.00    +0.000 A 
ATOM      7  C   UNL     1       0.456   1.216   0.021  0.00  0.00    +0.000 A 
ATOM      8  C   UNL     1      -0.912   1.303  -0.003  0.00  0.00    +0.000 A 
ATOM      9  C   UNL     1      -1.686   0.158  -0.067  0.00  0.00    +0.000 A 
ATOM     10  N   UNL     1      -1.143  -1.088  -0.027  0.00  0.00    +0.000 NA
ATOM     11  C   UNL     1       0.225  -1.171   0.055  0.00  0.00    +0.000 A 
BRANCH  11  12
ATOM     12  C   UNL     1       0.839  -2.520   0.107  0.00  0.00    +0.000 A 
ATOM     13  C   UNL     1       1.772  -2.855   1.117  0.00  0.00    +0.000 A 
ATOM     14  C   UNL     1       2.628  -3.969   1.008  0.00  0.00    +0.000 A 
ATOM     15  C   UNL     1       2.413  -4.863  -0.039  0.00  0.00    +0.000 A 
ATOM     16  C   UNL     1       1.389  -4.629  -0.963  0.00  0.00    +0.000 A 
ATOM     17  C   UNL     1       0.653  -3.441  -0.928  0.00  0.00    +0.000 A 
BRANCH  14  18
ATOM     18  C   UNL     1       3.753  -4.087   1.990  0.00  0.00    +0.000 C 
ATOM     19  O   UNL     1       3.929  -3.258   2.871  0.00  0.00    +0.000 OA
BRANCH  18  20
ATOM     20  O   UNL     1       4.597  -5.129   1.837  0.00  0.00    +0.000 OA
ATOM     21  H   UNL     1       4.449  -5.754   1.111  0.00  0.00    +0.000 HD
ENDBRANCH  18  20
ENDBRANCH  14  18
ENDBRANCH  11  12
ENDBRANCH   1   9
BRANCH   2  22
ATOM     22  C   UNL     1      -5.259   1.367  -0.057  0.00  0.00    +0.000 C 
ATOM     23  C   UNL     1      -6.044   2.433  -0.852  0.00  0.00    +0.000 C 
ATOM     24  C   UNL     1      -6.076   1.002  -1.284  0.00  0.00    +0.000 C 
BRANCH  22  25
ATOM     25  C   UNL     1      -5.628   1.022   1.395  0.00  0.00    +0.000 A 
ATOM     26  C   UNL     1      -5.372  -0.285   1.901  0.00  0.00    +0.000 A 
ATOM     27  C   UNL     1      -5.324  -0.578   3.276  0.00  0.00    +0.000 A 
ATOM     28  C   UNL     1      -5.606   0.439   4.160  0.00  0.00    +0.000 A 
ATOM     29  O   UNL     1      -5.637   0.363   5.520  0.00  0.00    +0.000 OA
ATOM     30  C   UNL     1      -6.017   1.714   5.842  0.00  0.00    +0.000 C 
ATOM     31  F   UNL     1      -5.127   2.226   6.728  0.00  0.00    +0.000 F 
ATOM     32  F   UNL     1      -7.229   1.696   6.455  0.00  0.00    +0.000 F 
ATOM     33  O   UNL     1      -6.097   2.593   4.714  0.00  0.00    +0.000 OA
ATOM     34  C   UNL     1      -5.880   1.706   3.703  0.00  0.00    +0.000 A 
ATOM     35  C   UNL     1      -5.880   2.025   2.352  0.00  0.00    +0.000 A 
ENDBRANCH  22  25
ENDBRANCH   2  22
TORSDOF 6
