REMARK  Name = Lumefantrine
REMARK  13 active torsions:
REMARK  status: ('A' for Active; 'I' for Inactive)
REMARK    1  A    between atoms: C_1  and  C_2
REMARK    2  A    between atoms: C_2  and  C_3
REMARK    3  A    between atoms: C_3  and  C_4
REMARK    4  A    between atoms: C_4  and  N_5
REMARK    5  A    between atoms: N_5  and  C_6
REMARK    6  A    between atoms: N_5  and  C_10
REMARK    7  A    between atoms: C_6  and  C_7
REMARK    8  A    between atoms: C_7  and  C_8
REMARK    9  A    between atoms: C_8  and  C_9
REMARK   10  A    between atoms: C_10  and  C_11
REMARK   11  A    between atoms: C_11  and  O_12
REMARK   12  A    between atoms: C_11  and  C_13
REMARK   13  A    between atoms: C_21  and  C_22
REMARK                            x       y       z     vdW  Elec       q    Type
REMARK                         _______ _______ _______ _____ _____    ______ ____
ROOT
ATOM      1  C   UNL     1       8.566  -1.439  -4.013  0.00  0.00    +0.000 A 
ATOM      2  C   UNL     1       9.282  -0.224  -3.989  0.00  0.00    +0.000 A 
ATOM      3  C   UNL     1      10.688  -0.278  -3.955  0.00  0.00    +0.000 A 
ATOM      4  C   UNL     1      11.348  -1.502  -3.875  0.00  0.00    +0.000 A 
ATOM      5  C   UNL     1      10.642  -2.692  -3.948  0.00  0.00    +0.000 A 
ATOM      6 CL   UNL     1      11.483  -4.191  -3.957  0.00  0.00    +0.000 Cl
ATOM      7  C   UNL     1       9.263  -2.666  -4.012  0.00  0.00    +0.000 A 
ATOM      8  C   UNL     1      11.187   1.137  -4.003  0.00  0.00    +0.000 C 
ATOM      9  C   UNL     1      12.456   1.558  -4.059  0.00  0.00    +0.000 C 
ATOM     10  C   UNL     1       9.995   2.044  -4.015  0.00  0.00    +0.000 A 
ATOM     11  C   UNL     1       8.865   1.200  -3.998  0.00  0.00    +0.000 A 
ATOM     12  C   UNL     1       7.605   1.792  -3.984  0.00  0.00    +0.000 A 
ATOM     13  C   UNL     1       7.444   3.174  -4.021  0.00  0.00    +0.000 A 
ATOM     14  C   UNL     1       8.568   3.988  -4.050  0.00  0.00    +0.000 A 
ATOM     15 CL   UNL     1       8.342   5.694  -4.082  0.00  0.00    +0.000 Cl
ATOM     16  C   UNL     1       9.856   3.433  -4.042  0.00  0.00    +0.000 A 
ENDROOT
BRANCH   9  17
ATOM     17  C   UNL     1      13.642   0.676  -4.109  0.00  0.00    +0.000 A 
ATOM     18  C   UNL     1      13.798  -0.243  -5.160  0.00  0.00    +0.000 A 
ATOM     19  C   UNL     1      14.693  -1.313  -5.029  0.00  0.00    +0.000 A 
ATOM     20  C   UNL     1      15.544  -1.368  -3.930  0.00  0.00    +0.000 A 
ATOM     21 CL   UNL     1      16.583  -2.723  -3.720  0.00  0.00    +0.000 Cl
ATOM     22  C   UNL     1      15.521  -0.355  -2.972  0.00  0.00    +0.000 A 
ATOM     23  C   UNL     1      14.541   0.643  -3.038  0.00  0.00    +0.000 A 
ENDBRANCH   9  17
BRANCH   1  24
ATOM     24  C   UNL     1       7.072  -1.547  -4.070  0.00  0.00    +0.000 C 
BRANCH  24  25
ATOM     25  O   UNL     1       6.684  -0.945  -5.300  0.00  0.00    +0.000 OA
ATOM     26  H   UNL     1       7.075  -0.064  -5.378  0.00  0.00    +0.000 HD
ENDBRANCH  24  25
BRANCH  24  27
ATOM     27  C   UNL     1       6.453  -1.052  -2.724  0.00  0.00    +0.000 C 
BRANCH  27  28
ATOM     28  N   UNL     1       4.973  -0.972  -2.657  0.00  0.00    +0.000 NA
BRANCH  28  29
ATOM     29  C   UNL     1       4.605  -0.569  -1.272  0.00  0.00    +0.000 C 
BRANCH  29  30
ATOM     30  C   UNL     1       3.110  -0.636  -1.029  0.00  0.00    +0.000 C 
BRANCH  30  32
ATOM     31  C   UNL     1       1.042  -0.117   0.166  0.00  0.00    +0.000 C 
ATOM     32  C   UNL     1       2.568  -0.177   0.300  0.00  0.00    +0.000 C 
ENDBRANCH  30  32
ENDBRANCH  29  30
ENDBRANCH  28  29
BRANCH  28  33
ATOM     33  C   UNL     1       4.462  -0.059  -3.704  0.00  0.00    +0.000 C 
BRANCH  33  34
ATOM     34  C   UNL     1       2.974  -0.058  -3.959  0.00  0.00    +0.000 C 
BRANCH  34  35
ATOM     35  C   UNL     1       2.518   0.877  -5.055  0.00  0.00    +0.000 C 
ATOM     36  C   UNL     1       0.997   0.907  -4.961  0.00  0.00    +0.000 C 
ENDBRANCH  34  35
ENDBRANCH  33  34
ENDBRANCH  28  33
ENDBRANCH  27  28
ENDBRANCH  24  27
ENDBRANCH   1  24
TORSDOF 11
