REMARK  Name = Lumiracoxib
REMARK  6 active torsions:
REMARK  status: ('A' for Active; 'I' for Inactive)
REMARK    1  A    between atoms: C_1  and  C_2
REMARK    2  A    between atoms: C_5  and  N_6
REMARK    3  A    between atoms: N_6  and  C_7
REMARK    4  A    between atoms: C_15  and  C_16
REMARK    5  A    between atoms: C_16  and  C_17
REMARK    6  A    between atoms: C_17  and  O_18
REMARK                            x       y       z     vdW  Elec       q    Type
REMARK                         _______ _______ _______ _____ _____    ______ ____
ROOT
ATOM      1  C   UNL     1       2.497  -0.167  -0.019  0.00  0.00    +0.000 C 
ATOM      2  C   UNL     1       1.000  -0.227   0.003  0.00  0.00    +0.000 A 
ATOM      3  C   UNL     1       0.213  -1.360   0.017  0.00  0.00    +0.000 A 
ATOM      4  C   UNL     1      -1.191  -1.222   0.001  0.00  0.00    +0.000 A 
ATOM      5  C   UNL     1      -1.836   0.050   0.017  0.00  0.00    +0.000 A 
ATOM      6  C   UNL     1      -1.004   1.208   0.058  0.00  0.00    +0.000 A 
ATOM      7  C   UNL     1       0.368   1.004  -0.008  0.00  0.00    +0.000 A 
ENDROOT
BRANCH   5   8
ATOM      8  N   UNL     1      -3.261   0.058  -0.128  0.00  0.00    +0.000 N 
ATOM      9  H   UNL     1      -3.718  -0.810   0.142  0.00  0.00    +0.000 HD
BRANCH   8  10
ATOM     10  C   UNL     1      -4.153   1.164  -0.174  0.00  0.00    +0.000 A 
ATOM     11  C   UNL     1      -4.982   1.521   0.906  0.00  0.00    +0.000 A 
ATOM     12 CL   UNL     1      -5.182   0.475   2.268  0.00  0.00    +0.000 Cl
ATOM     13  C   UNL     1      -5.616   2.776   0.945  0.00  0.00    +0.000 A 
ATOM     14  C   UNL     1      -5.411   3.703  -0.077  0.00  0.00    +0.000 A 
ATOM     15  C   UNL     1      -4.646   3.344  -1.179  0.00  0.00    +0.000 A 
ATOM     16  C   UNL     1      -4.093   2.065  -1.251  0.00  0.00    +0.000 A 
ATOM     17  F   UNL     1      -3.316   1.775  -2.309  0.00  0.00    +0.000 F 
ENDBRANCH   8  10
ENDBRANCH   5   8
BRANCH   6  18
ATOM     18  C   UNL     1      -1.529   2.625   0.116  0.00  0.00    +0.000 C 
BRANCH  18  19
ATOM     19  C   UNL     1      -0.827   3.961   0.138  0.00  0.00    +0.000 C 
ATOM     20  O   UNL     1      -1.505   4.979   0.115  0.00  0.00    +0.000 OA
BRANCH  19  21
ATOM     21  O   UNL     1       0.501   4.105   0.111  0.00  0.00    +0.000 OA
ATOM     22  H   UNL     1       1.108   3.371   0.212  0.00  0.00    +0.000 HD
ENDBRANCH  19  21
ENDBRANCH  18  19
ENDBRANCH   6  18
TORSDOF 5
