REMARK  Name = Lurasidone
REMARK  4 active torsions:
REMARK  status: ('A' for Active; 'I' for Inactive)
REMARK    1  A    between atoms: N_12  and  C_13
REMARK    2  A    between atoms: C_13  and  C_14
REMARK    3  A    between atoms: C_19  and  C_20
REMARK    4  A    between atoms: C_20  and  N_21
REMARK                            x       y       z     vdW  Elec       q    Type
REMARK                         _______ _______ _______ _____ _____    ______ ____
ROOT
ATOM      1  C   UNL     1       3.749  -3.594  -0.303  0.00  0.00    +0.000 C 
ATOM      2  C   UNL     1       4.241  -2.840  -1.566  0.00  0.00    +0.000 C 
ATOM      3  C   UNL     1       3.331  -1.816  -2.315  0.00  0.00    +0.000 C 
ATOM      4  C   UNL     1       1.585  -2.168  -2.156  0.00  0.00    +0.000 C 
ATOM      5  C   UNL     1       1.084  -3.047  -0.707  0.00  0.00    +0.000 C 
ATOM      6  C   UNL     1       2.229  -4.027  -0.404  0.00  0.00    +0.000 C 
ENDROOT
BRANCH   1   7
ATOM      7  C   UNL     1       4.187  -2.804   0.999  0.00  0.00    +0.000 C 
BRANCH   7  17
ATOM      8  C   UNL     1       2.104   0.309   0.297  0.00  0.00    +0.000 C 
ATOM      9  C   UNL     1       2.606   1.112  -0.949  0.00  0.00    +0.000 C 
ATOM     10  C   UNL     1       1.970   2.481  -0.784  0.00  0.00    +0.000 C 
ATOM     11  C   UNL     1       2.671   2.964   0.497  0.00  0.00    +0.000 C 
ATOM     12  C   UNL     1       3.671   1.846   0.846  0.00  0.00    +0.000 C 
ATOM     13  C   UNL     1       4.060   1.333  -0.559  0.00  0.00    +0.000 C 
ATOM     14  C   UNL     1       2.843   0.753   1.513  0.00  0.00    +0.000 C 
ATOM     15  C   UNL     1       3.754  -0.418   2.039  0.00  0.00    +0.000 C 
ATOM     16  O   UNL     1       4.489  -0.400   3.006  0.00  0.00    +0.000 OA
ATOM     17  N   UNL     1       3.618  -1.438   1.231  0.00  0.00    +0.000 N 
ATOM     18  C   UNL     1       2.741  -0.952   0.441  0.00  0.00    +0.000 C 
ATOM     19  O   UNL     1       2.495  -1.633  -0.433  0.00  0.00    +0.000 OA
ENDBRANCH   7  17
ENDBRANCH   1   7
BRANCH   6  20
ATOM     20  C   UNL     1       1.966  -4.946  -1.536  0.00  0.00    +0.000 C 
BRANCH  20  21
ATOM     21  N   UNL     1       2.154  -4.833  -3.005  0.00  0.00    +0.000 NA
ATOM     22  C   UNL     1       3.399  -4.477  -3.808  0.00  0.00    +0.000 C 
ATOM     23  C   UNL     1       4.679  -5.274  -3.399  0.00  0.00    +0.000 C 
ATOM     24  N   UNL     1       4.298  -6.647  -3.508  0.00  0.00    +0.000 N 
ATOM     25  C   UNL     1       3.139  -7.064  -2.766  0.00  0.00    +0.000 C 
ATOM     26  C   UNL     1       1.913  -6.246  -3.284  0.00  0.00    +0.000 C 
ATOM     27  C   UNL     1       5.093  -7.513  -4.113  0.00  0.00    +0.000 A 
ATOM     28  N   UNL     1       6.384  -7.622  -3.839  0.00  0.00    +0.000 NA
ATOM     29  S   UNL     1       7.007  -8.775  -4.827  0.00  0.00    +0.000 S 
ATOM     30  C   UNL     1       5.557  -9.085  -5.691  0.00  0.00    +0.000 A 
ATOM     31  C   UNL     1       5.330  -9.963  -6.747  0.00  0.00    +0.000 A 
ATOM     32  C   UNL     1       4.049 -10.020  -7.300  0.00  0.00    +0.000 A 
ATOM     33  C   UNL     1       3.021  -9.219  -6.827  0.00  0.00    +0.000 A 
ATOM     34  C   UNL     1       3.258  -8.348  -5.773  0.00  0.00    +0.000 A 
ATOM     35  C   UNL     1       4.545  -8.289  -5.179  0.00  0.00    +0.000 A 
ENDBRANCH  20  21
ENDBRANCH   6  20
TORSDOF 4
