REMARK  Name = Lutein
REMARK  22 active torsions:
REMARK  status: ('A' for Active; 'I' for Inactive)
REMARK    1  A    between atoms: C_1  and  C_2
REMARK    2  A    between atoms: C_2  and  C_3
REMARK    3  A    between atoms: C_4  and  C_5
REMARK    4  A    between atoms: C_6  and  C_7
REMARK    5  A    between atoms: C_6  and  C_8
REMARK    6  A    between atoms: C_9  and  C_10
REMARK    7  A    between atoms: C_11  and  C_12
REMARK    8  A    between atoms: C_14  and  O_15
REMARK    9  A    between atoms: C_17  and  C_18
REMARK   10  A    between atoms: C_17  and  C_19
REMARK   11  A    between atoms: C_20  and  C_21
REMARK   12  A    between atoms: C_22  and  C_23
REMARK   13  A    between atoms: C_24  and  C_25
REMARK   14  A    between atoms: C_24  and  C_26
REMARK   15  A    between atoms: C_27  and  C_28
REMARK   16  A    between atoms: C_29  and  C_30
REMARK   17  A    between atoms: C_29  and  C_31
REMARK   18  A    between atoms: C_32  and  C_33
REMARK   19  A    between atoms: C_34  and  C_35
REMARK   20  A    between atoms: C_37  and  O_38
REMARK   21  A    between atoms: C_40  and  C_41
REMARK   22  A    between atoms: C_40  and  C_42
REMARK                            x       y       z     vdW  Elec       q    Type
REMARK                         _______ _______ _______ _____ _____    ______ ____
ROOT
ATOM      1  C   UNL     1       2.369   1.325  -2.093  0.00  0.00    +0.000 C 
ATOM      2  C   UNL     1       3.013   1.984  -3.068  0.00  0.00    +0.000 C 
ENDROOT
BRANCH   1   5
ATOM      3  C   UNL     1       0.912  -0.071  -0.028  0.00  0.00    +0.000 C 
ATOM      4  C   UNL     1       2.427  -0.065  -0.046  0.00  0.00    +0.000 C 
ATOM      5  C   UNL     1       3.062   0.607  -1.033  0.00  0.00    +0.000 C 
BRANCH   4   6
ATOM      6  C   UNL     1       3.195  -0.768   0.989  0.00  0.00    +0.000 C 
ATOM      7  C   UNL     1       2.627  -1.451   1.997  0.00  0.00    +0.000 C 
BRANCH   7   8
ATOM      8  C   UNL     1       3.268  -2.142   3.089  0.00  0.00    +0.000 C 
ATOM      9  C   UNL     1       2.580  -2.750   4.085  0.00  0.00    +0.000 C 
ATOM     10  C   UNL     1       1.068  -2.854   4.144  0.00  0.00    +0.000 C 
BRANCH   9  11
ATOM     11  C   UNL     1       3.301  -3.372   5.192  0.00  0.00    +0.000 C 
ATOM     12  C   UNL     1       2.701  -4.003   6.219  0.00  0.00    +0.000 C 
BRANCH  12  13
ATOM     13  C   UNL     1       3.426  -4.820   7.261  0.00  0.00    +0.000 C 
ATOM     14  C   UNL     1       2.746  -4.663   8.596  0.00  0.00    +0.000 C 
ATOM     15  C   UNL     1       2.579  -3.260   9.115  0.00  0.00    +0.000 C 
ATOM     16  C   UNL     1       2.303  -5.703   9.321  0.00  0.00    +0.000 C 
ATOM     17  C   UNL     1       2.424  -7.128   8.941  0.00  0.00    +0.000 C 
ATOM     18  C   UNL     1       3.124  -7.458   7.637  0.00  0.00    +0.000 C 
ATOM     19  C   UNL     1       3.657  -6.299   6.757  0.00  0.00    +0.000 C 
ATOM     20  C   UNL     1       5.193  -6.484   6.712  0.00  0.00    +0.000 C 
ATOM     21  C   UNL     1       3.021  -6.541   5.359  0.00  0.00    +0.000 C 
BRANCH  17  22
ATOM     22  O   UNL     1       3.148  -7.764   9.991  0.00  0.00    +0.000 OA
ATOM     23  H   UNL     1       4.051  -7.402   9.952  0.00  0.00    +0.000 HD
ENDBRANCH  17  22
ENDBRANCH  12  13
ENDBRANCH   9  11
ENDBRANCH   7   8
ENDBRANCH   4   6
ENDBRANCH   1   5
BRANCH   2  24
ATOM     24  C   UNL     1       2.352   2.708  -4.140  0.00  0.00    +0.000 C 
ATOM     25  C   UNL     1       2.996   3.375  -5.125  0.00  0.00    +0.000 C 
ATOM     26  C   UNL     1       4.508   3.430  -5.210  0.00  0.00    +0.000 C 
BRANCH  25  27
ATOM     27  C   UNL     1       2.238   4.085  -6.174  0.00  0.00    +0.000 C 
ATOM     28  C   UNL     1       2.836   4.761  -7.173  0.00  0.00    +0.000 C 
BRANCH  28  29
ATOM     29  C   UNL     1       2.218   5.476  -8.269  0.00  0.00    +0.000 C 
ATOM     30  C   UNL     1       2.910   6.112  -9.249  0.00  0.00    +0.000 C 
ATOM     31  C   UNL     1       4.414   6.197  -9.318  0.00  0.00    +0.000 C 
BRANCH  30  32
ATOM     32  C   UNL     1       2.188   6.752 -10.350  0.00  0.00    +0.000 C 
ATOM     33  C   UNL     1       2.705   7.524 -11.326  0.00  0.00    +0.000 C 
BRANCH  33  34
ATOM     34  C   UNL     1       1.968   8.211 -12.401  0.00  0.00    +0.000 C 
ATOM     35  C   UNL     1       2.399   8.109 -13.678  0.00  0.00    +0.000 C 
ATOM     36  C   UNL     1       3.563   7.258 -14.139  0.00  0.00    +0.000 C 
ATOM     37  C   UNL     1       1.776   8.854 -14.826  0.00  0.00    +0.000 C 
ATOM     38  C   UNL     1       0.508   9.652 -14.572  0.00  0.00    +0.000 C 
ATOM     39  C   UNL     1       0.104   9.935 -13.145  0.00  0.00    +0.000 C 
ATOM     40  C   UNL     1       0.823   9.164 -12.003  0.00  0.00    +0.000 C 
ATOM     41  C   UNL     1       1.428  10.273 -11.110  0.00  0.00    +0.000 C 
ATOM     42  C   UNL     1      -0.311   8.391 -11.296  0.00  0.00    +0.000 C 
BRANCH  38  43
ATOM     43  O   UNL     1      -0.589   8.971 -15.193  0.00  0.00    +0.000 OA
ATOM     44  H   UNL     1      -0.688   8.126 -14.719  0.00  0.00    +0.000 HD
ENDBRANCH  38  43
ENDBRANCH  33  34
ENDBRANCH  30  32
ENDBRANCH  28  29
ENDBRANCH  25  27
ENDBRANCH   2  24
TORSDOF 12
