REMARK  Name = Lycopene
REMARK  26 active torsions:
REMARK  status: ('A' for Active; 'I' for Inactive)
REMARK    1  A    between atoms: C_1  and  C_2
REMARK    2  A    between atoms: C_2  and  C_3
REMARK    3  A    between atoms: C_4  and  C_5
REMARK    4  A    between atoms: C_5  and  C_6
REMARK    5  A    between atoms: C_6  and  C_7
REMARK    6  A    between atoms: C_7  and  C_8
REMARK    7  A    between atoms: C_9  and  C_10
REMARK    8  A    between atoms: C_11  and  C_12
REMARK    9  A    between atoms: C_12  and  C_13
REMARK   10  A    between atoms: C_14  and  C_15
REMARK   11  A    between atoms: C_16  and  C_17
REMARK   12  A    between atoms: C_17  and  C_18
REMARK   13  A    between atoms: C_19  and  C_20
REMARK   14  A    between atoms: C_21  and  C_22
REMARK   15  A    between atoms: C_23  and  C_24
REMARK   16  A    between atoms: C_23  and  C_25
REMARK   17  A    between atoms: C_26  and  C_27
REMARK   18  A    between atoms: C_28  and  C_29
REMARK   19  A    between atoms: C_28  and  C_30
REMARK   20  A    between atoms: C_31  and  C_32
REMARK   21  A    between atoms: C_33  and  C_34
REMARK   22  A    between atoms: C_33  and  C_35
REMARK   23  A    between atoms: C_35  and  C_36
REMARK   24  A    between atoms: C_36  and  C_37
REMARK   25  A    between atoms: C_38  and  C_39
REMARK   26  A    between atoms: C_38  and  C_40
REMARK                            x       y       z     vdW  Elec       q    Type
REMARK                         _______ _______ _______ _____ _____    ______ ____
ROOT
ATOM      1  C   UNL     1      17.715  -8.060  -2.941  0.00  0.00    +0.000 C 
ATOM      2  C   UNL     1      18.415  -9.137  -3.329  0.00  0.00    +0.000 C 
ENDROOT
BRANCH   1   5
ATOM      3  C   UNL     1      15.539  -6.929  -2.535  0.00  0.00    +0.000 C 
ATOM      4  C   UNL     1      16.285  -5.691  -2.089  0.00  0.00    +0.000 C 
ATOM      5  C   UNL     1      16.255  -8.011  -2.924  0.00  0.00    +0.000 C 
BRANCH   3   7
ATOM      6  C   UNL     1      13.286  -5.915  -2.170  0.00  0.00    +0.000 C 
ATOM      7  C   UNL     1      14.065  -6.947  -2.541  0.00  0.00    +0.000 C 
BRANCH   6  10
ATOM      8  C   UNL     1      11.143  -4.750  -1.751  0.00  0.00    +0.000 C 
ATOM      9  C   UNL     1      11.891  -3.505  -1.303  0.00  0.00    +0.000 C 
ATOM     10  C   UNL     1      11.831  -5.851  -2.147  0.00  0.00    +0.000 C 
BRANCH   8  12
ATOM     11  C   UNL     1       8.909  -3.709  -1.377  0.00  0.00    +0.000 C 
ATOM     12  C   UNL     1       9.672  -4.749  -1.750  0.00  0.00    +0.000 C 
BRANCH  11  15
ATOM     13  C   UNL     1       6.790  -2.534  -0.954  0.00  0.00    +0.000 C 
ATOM     14  C   UNL     1       7.533  -1.288  -0.506  0.00  0.00    +0.000 C 
ATOM     15  C   UNL     1       7.462  -3.641  -1.352  0.00  0.00    +0.000 C 
BRANCH  13  16
ATOM     16  C   UNL     1       5.268  -2.533  -0.954  0.00  0.00    +0.000 C 
BRANCH  16  17
ATOM     17  C   UNL     1       4.653  -1.216  -0.480  0.00  0.00    +0.000 C 
BRANCH  17  21
ATOM     18  C   UNL     1       0.992  -0.059  -0.064  0.00  0.00    +0.000 C 
ATOM     19  C   UNL     1       2.490  -0.070  -0.068  0.00  0.00    +0.000 C 
ATOM     20  C   UNL     1       3.209   1.177   0.381  0.00  0.00    +0.000 C 
ATOM     21  C   UNL     1       3.159  -1.171  -0.464  0.00  0.00    +0.000 C 
ENDBRANCH  17  21
ENDBRANCH  16  17
ENDBRANCH  13  16
ENDBRANCH  11  15
ENDBRANCH   8  12
ENDBRANCH   6  10
ENDBRANCH   3   7
ENDBRANCH   1   5
BRANCH   2  22
ATOM     22  C   UNL     1      19.869  -9.212  -3.356  0.00  0.00    +0.000 C 
ATOM     23  C   UNL     1      20.583 -10.295  -3.745  0.00  0.00    +0.000 C 
ATOM     24  C   UNL     1      19.917 -11.576  -4.205  0.00  0.00    +0.000 C 
BRANCH  23  25
ATOM     25  C   UNL     1      22.063 -10.269  -3.736  0.00  0.00    +0.000 C 
ATOM     26  C   UNL     1      22.825 -11.312  -4.111  0.00  0.00    +0.000 C 
BRANCH  26  27
ATOM     27  C   UNL     1      24.276 -11.394  -4.140  0.00  0.00    +0.000 C 
ATOM     28  C   UNL     1      24.975 -12.488  -4.533  0.00  0.00    +0.000 C 
ATOM     29  C   UNL     1      24.310 -13.775  -4.996  0.00  0.00    +0.000 C 
BRANCH  28  30
ATOM     30  C   UNL     1      26.452 -12.473  -4.528  0.00  0.00    +0.000 C 
ATOM     31  C   UNL     1      27.203 -13.521  -4.905  0.00  0.00    +0.000 C 
BRANCH  31  32
ATOM     32  C   UNL     1      28.648 -13.612  -4.938  0.00  0.00    +0.000 C 
ATOM     33  C   UNL     1      29.328 -14.713  -5.334  0.00  0.00    +0.000 C 
ATOM     34  C   UNL     1      28.659 -15.995  -5.795  0.00  0.00    +0.000 C 
BRANCH  33  35
ATOM     35  C   UNL     1      30.858 -14.706  -5.331  0.00  0.00    +0.000 C 
BRANCH  35  36
ATOM     36  C   UNL     1      31.472 -16.027  -5.806  0.00  0.00    +0.000 C 
BRANCH  36  37
ATOM     37  C   UNL     1      32.967 -16.079  -5.825  0.00  0.00    +0.000 C 
ATOM     38  C   UNL     1      33.641 -17.177  -6.220  0.00  0.00    +0.000 C 
ATOM     39  C   UNL     1      32.958 -18.444  -6.675  0.00  0.00    +0.000 C 
ATOM     40  C   UNL     1      35.142 -17.199  -6.228  0.00  0.00    +0.000 C 
ENDBRANCH  36  37
ENDBRANCH  35  36
ENDBRANCH  33  35
ENDBRANCH  31  32
ENDBRANCH  28  30
ENDBRANCH  26  27
ENDBRANCH  23  25
ENDBRANCH   2  22
TORSDOF 16
