REMARK  Name = Lymecycline
REMARK  20 active torsions:
REMARK  status: ('A' for Active; 'I' for Inactive)
REMARK    1  A    between atoms: C_10  and  O_11
REMARK    2  A    between atoms: C_16  and  C_17
REMARK    3  A    between atoms: C_16  and  O_18
REMARK    4  A    between atoms: C_19  and  O_20
REMARK    5  A    between atoms: C_21  and  O_22
REMARK    6  A    between atoms: C_25  and  C_26
REMARK    7  A    between atoms: N_28  and  C_29
REMARK    8  A    between atoms: C_29  and  N_30
REMARK    9  A    between atoms: N_30  and  C_31
REMARK   10  A    between atoms: C_31  and  C_32
REMARK   11  A    between atoms: C_32  and  C_33
REMARK   12  A    between atoms: C_33  and  C_34
REMARK   13  A    between atoms: C_34  and  C_35
REMARK   14  A    between atoms: C_35  and  N_36
REMARK   15  A    between atoms: C_35  and  C_37
REMARK   16  A    between atoms: C_37  and  O_38
REMARK   17  A    between atoms: C_40  and  O_41
REMARK   18  A    between atoms: C_42  and  N_43
REMARK   19  A    between atoms: N_43  and  C_44
REMARK   20  A    between atoms: N_43  and  C_45
REMARK                            x       y       z     vdW  Elec       q    Type
REMARK                         _______ _______ _______ _____ _____    ______ ____
ROOT
ATOM      1  C   UNK     1      14.714  13.093 -10.394  0.00  0.00    +0.000 C 
ATOM      2  C   UNK     1      16.254  13.153  -9.582  0.00  0.00    +0.000 C 
ATOM      3  C   UNK     1      17.212  14.210  -9.818  0.00  0.00    +0.000 C 
ATOM      4  C   UNK     1      16.575  15.403  -9.336  0.00  0.00    +0.000 C 
ATOM      5  C   UNK     1      17.446  16.587  -9.151  0.00  0.00    +0.000 C 
ATOM      6  O   UNK     1      17.000  17.721  -9.031  0.00  0.00    +0.000 OA
ATOM      7  C   UNK     1      18.907  16.271  -9.054  0.00  0.00    +0.000 A 
ATOM      8  C   UNK     1      19.885  17.250  -9.060  0.00  0.00    +0.000 A 
ATOM      9  C   UNK     1      21.234  16.880  -8.995  0.00  0.00    +0.000 A 
ATOM     10  C   UNK     1      21.627  15.551  -8.904  0.00  0.00    +0.000 A 
ATOM     11  C   UNK     1      20.671  14.585  -8.845  0.00  0.00    +0.000 A 
ATOM     12  C   UNK     1      19.330  14.933  -8.941  0.00  0.00    +0.000 A 
ATOM     13  C   UNK     1      18.369  13.815  -8.916  0.00  0.00    +0.000 C 
ATOM     14  C   UNK     1      18.943  12.528  -9.550  0.00  0.00    +0.000 C 
ATOM     15  C   UNK     1      15.305  15.212  -8.991  0.00  0.00    +0.000 C 
ATOM     16  C   UNK     1      14.475  13.601  -9.123  0.00  0.00    +0.000 C 
ATOM     17  C   UNK     1      14.950  11.614  -9.118  0.00  0.00    +0.000 C 
ATOM     18  O   UNK     1      15.827  10.935  -9.818  0.00  0.00    +0.000 OA
ATOM     19  C   UNK     1      14.097  10.387  -8.894  0.00  0.00    +0.000 C 
ATOM     20  C   UNK     1      13.405  10.855 -10.001  0.00  0.00    +0.000 C 
ATOM     21  C   UNK     1      13.074  12.320  -9.846  0.00  0.00    +0.000 C 
ENDROOT
BRANCH  19  22
ATOM     22  C   UNK     1      14.275  10.348  -7.358  0.00  0.00    +0.000 C 
ATOM     23  O   UNK     1      14.567  11.384  -6.746  0.00  0.00    +0.000 OA
ATOM     24  N   UNK     1      14.157   9.205  -6.601  0.00  0.00    +0.000 N 
ATOM     25  H   UNK     1      14.351   8.267  -6.924  0.00  0.00    +0.000 HD
BRANCH  24  26
ATOM     26  C   UNK     1      13.886   9.459  -5.209  0.00  0.00    +0.000 C 
BRANCH  26  27
ATOM     27  N   UNK     1      14.137   8.268  -4.440  0.00  0.00    +0.000 NA
ATOM     28  H   UNK     1      15.134   8.067  -4.505  0.00  0.00    +0.000 HD
BRANCH  27  29
ATOM     29  C   UNK     1      13.837   8.569  -3.032  0.00  0.00    +0.000 C 
BRANCH  29  30
ATOM     30  C   UNK     1      14.121   7.331  -2.194  0.00  0.00    +0.000 C 
BRANCH  30  31
ATOM     31  C   UNK     1      13.803   7.617  -0.739  0.00  0.00    +0.000 C 
BRANCH  31  32
ATOM     32  C   UNK     1      14.061   6.398   0.145  0.00  0.00    +0.000 C 
BRANCH  32  33
ATOM     33  C   UNK     1      13.688   6.681   1.607  0.00  0.00    +0.000 C 
BRANCH  33  34
ATOM     34  N   UNK     1      12.237   6.926   1.724  0.00  0.00    +0.000 NA
ATOM     35  H   UNK     1      11.930   7.694   1.135  0.00  0.00    +0.000 HD
ATOM     36  H   UNK     1      11.956   7.056   2.690  0.00  0.00    +0.000 HD
ENDBRANCH  33  34
BRANCH  33  37
ATOM     37  C   UNK     1      14.531   7.858   2.136  0.00  0.00    +0.000 C 
ATOM     38  O   UNK     1      15.754   7.857   2.141  0.00  0.00    +0.000 OA
BRANCH  37  39
ATOM     39  O   UNK     1      13.829   8.942   2.549  0.00  0.00    +0.000 OA
ATOM     40  H   UNK     1      12.863   8.849   2.477  0.00  0.00    +0.000 HD
ENDBRANCH  37  39
ENDBRANCH  33  37
ENDBRANCH  32  33
ENDBRANCH  31  32
ENDBRANCH  30  31
ENDBRANCH  29  30
ENDBRANCH  27  29
ENDBRANCH  26  27
ENDBRANCH  24  26
ENDBRANCH  19  22
BRANCH  21  41
ATOM     41  N   UNK     1      12.677  12.381  -8.237  0.00  0.00    +0.000 NA
ATOM     42  C   UNK     1      12.689  13.555  -7.343  0.00  0.00    +0.000 C 
ATOM     43  C   UNK     1      11.713  11.415  -7.790  0.00  0.00    +0.000 C 
ENDBRANCH  21  41
BRANCH   8  44
ATOM     44  O   UNK     1      19.610  18.583  -9.141  0.00  0.00    +0.000 OA
ATOM     45  H   UNK     1      18.637  18.706  -9.143  0.00  0.00    +0.000 HD
ENDBRANCH   8  44
BRANCH  20  46
ATOM     46  O   UNK     1      13.745  10.569 -11.353  0.00  0.00    +0.000 OA
ATOM     47  H   UNK     1      14.600  10.088 -11.399  0.00  0.00    +0.000 HD
ENDBRANCH  20  46
BRANCH  16  48
ATOM     48  O   UNK     1      13.304  14.470  -9.539  0.00  0.00    +0.000 OA
ATOM     49  H   UNK     1      13.239  15.183  -8.866  0.00  0.00    +0.000 HD
ENDBRANCH  16  48
BRANCH  15  50
ATOM     50  O   UNK     1      14.534  16.373  -8.731  0.00  0.00    +0.000 OA
ATOM     51  H   UNK     1      15.114  17.169  -8.878  0.00  0.00    +0.000 HD
ENDBRANCH  15  50
BRANCH  13  52
ATOM     52  O   UNK     1      18.019  13.633  -7.531  0.00  0.00    +0.000 OA
ATOM     53  H   UNK     1      17.571  14.435  -7.190  0.00  0.00    +0.000 HD
ENDBRANCH  13  52
TORSDOF 17
