REMARK  Name = Lynestrenol
REMARK  3 active torsions:
REMARK  status: ('A' for Active; 'I' for Inactive)
REMARK    1  A    between atoms: C_1  and  C_2
REMARK    2  A    between atoms: C_18  and  O_19
REMARK    3  A    between atoms: C_18  and  C_20
REMARK                            x       y       z     vdW  Elec       q    Type
REMARK                         _______ _______ _______ _____ _____    ______ ____
ROOT
ATOM      1  C   UNL     1       0.806  -0.003   0.099  0.00  0.00    +0.000 C 
ATOM      2  C   UNL     1       2.289   0.174   0.201  0.00  0.00    +0.000 C 
ATOM      3  C   UNL     1       2.791  -0.460   1.849  0.00  0.00    +0.000 C 
ATOM      4  C   UNL     1       2.490  -1.880   2.168  0.00  0.00    +0.000 C 
ATOM      5  C   UNL     1       3.197  -2.797   1.206  0.00  0.00    +0.000 C 
ATOM      6  C   UNL     1       2.901  -2.121  -0.161  0.00  0.00    +0.000 C 
ATOM      7  C   UNL     1       3.232  -3.191  -1.321  0.00  0.00    +0.000 C 
ATOM      8  C   UNL     1       2.708  -4.637  -1.032  0.00  0.00    +0.000 C 
ATOM      9  C   UNL     1       3.124  -5.134   0.292  0.00  0.00    +0.000 C 
ATOM     10  C   UNL     1       3.741  -6.311   0.402  0.00  0.00    +0.000 C 
ATOM     11  C   UNL     1       3.982  -6.754   1.737  0.00  0.00    +0.000 C 
ATOM     12  C   UNL     1       4.436  -6.540   3.095  0.00  0.00    +0.000 C 
ATOM     13  C   UNL     1       3.537  -4.975   3.079  0.00  0.00    +0.000 C 
ATOM     14  C   UNL     1       2.825  -4.312   1.538  0.00  0.00    +0.000 C 
ATOM     15  C   UNL     1       3.573  -0.371  -0.096  0.00  0.00    +0.000 C 
ATOM     16  C   UNL     1       3.591   1.364   0.930  0.00  0.00    +0.000 C 
ATOM     17  C   UNL     1       2.685   2.477   0.256  0.00  0.00    +0.000 C 
ATOM     18  C   UNL     1       2.813   1.561  -0.842  0.00  0.00    +0.000 C 
ENDROOT
BRANCH  18  19
ATOM     19  O   UNL     1       2.016   1.688  -1.972  0.00  0.00    +0.000 OA
ATOM     20  H   UNL     1       1.643   0.804  -2.095  0.00  0.00    +0.000 HD
ENDBRANCH  18  19
BRANCH  18  21
ATOM     21  C   UNL     1       4.290   1.825  -1.357  0.00  0.00    +0.000 C 
ATOM     22  C   UNL     1       5.351   2.110  -1.762  0.00  0.00    +0.000 C 
ENDBRANCH  18  21
TORSDOF 2
