REMARK  Name = Lysine
REMARK  8 active torsions:
REMARK  status: ('A' for Active; 'I' for Inactive)
REMARK    1  A    between atoms: NZ_1  and  CE_2
REMARK    2  A    between atoms: CE_2  and  CD_3
REMARK    3  A    between atoms: CD_3  and  CG_4
REMARK    4  A    between atoms: CG_4  and  CB_5
REMARK    5  A    between atoms: CB_5  and  CA_6
REMARK    6  A    between atoms: CA_6  and  N_7
REMARK    7  A    between atoms: CA_6  and  C_8
REMARK    8  A    between atoms: C_8  and  O_9
REMARK                            x       y       z     vdW  Elec       q    Type
REMARK                         _______ _______ _______ _____ _____    ______ ____
ROOT
ATOM      1  CA  LYS A   1       6.528  -1.627   2.513  0.00  0.00    +0.000 C 
ENDROOT
BRANCH   1   2
ATOM      2  N   LYS A   1       5.053  -1.634   2.527  0.00  0.00    +0.000 NA
ATOM      3  H1  LYS A   1       4.662  -1.145   3.326  0.00  0.00    +0.000 HD
ATOM      4  H2  LYS A   1       4.666  -2.561   2.377  0.00  0.00    +0.000 HD
ENDBRANCH   1   2
BRANCH   1   5
ATOM      5  C   LYS A   1       7.121  -2.442   3.678  0.00  0.00    +0.000 C 
ATOM      6  OXT LYS A   1       8.324  -2.576   3.869  0.00  0.00    +0.000 OA
BRANCH   5   7
ATOM      7  O   LYS A   1       6.207  -3.003   4.507  0.00  0.00    +0.000 OA
ATOM      8  H   LYS A   1       5.292  -2.801   4.241  0.00  0.00    +0.000 HD
ENDBRANCH   5   7
ENDBRANCH   1   5
BRANCH   1   9
ATOM      9  CB  LYS A   1       7.037  -0.179   2.581  0.00  0.00    +0.000 C 
BRANCH   9  10
ATOM     10  CG  LYS A   1       8.205   0.047   1.617  0.00  0.00    +0.000 C 
BRANCH  10  11
ATOM     11  CD  LYS A   1       8.716   1.485   1.704  0.00  0.00    +0.000 C 
BRANCH  11  12
ATOM     12  CE  LYS A   1       9.870   1.710   0.732  0.00  0.00    +0.000 C 
BRANCH  12  13
ATOM     13  NZ  LYS A   1      10.336   3.087   0.827  0.00  0.00    +0.000 NA
ATOM     14  HZ1 LYS A   1      11.132   3.217   0.204  0.00  0.00    +0.000 HD
ATOM     15  HZ2 LYS A   1      10.679   3.265   1.770  0.00  0.00    +0.000 HD
ENDBRANCH  12  13
ENDBRANCH  11  12
ENDBRANCH  10  11
ENDBRANCH   9  10
ENDBRANCH   1   9
TORSDOF 8
