REMARK  Name = Macitentan
REMARK  12 active torsions:
REMARK  status: ('A' for Active; 'I' for Inactive)
REMARK    1  A    between atoms: C_1  and  C_2
REMARK    2  A    between atoms: C_2  and  C_3
REMARK    3  A    between atoms: C_3  and  N_4
REMARK    4  A    between atoms: N_4  and  S_5
REMARK    5  A    between atoms: S_5  and  N_8
REMARK    6  A    between atoms: N_8  and  C_9
REMARK    7  A    between atoms: C_10  and  C_26
REMARK    8  A    between atoms: C_11  and  O_12
REMARK    9  A    between atoms: O_12  and  C_13
REMARK   10  A    between atoms: C_13  and  C_14
REMARK   11  A    between atoms: C_14  and  O_15
REMARK   12  A    between atoms: O_15  and  C_16
REMARK                            x       y       z     vdW  Elec       q    Type
REMARK                         _______ _______ _______ _____ _____    ______ ____
ROOT
ATOM      1  C   UNL     1       7.439  -2.787  -3.315  0.00  0.00    +0.000 A 
ATOM      2  C   UNL     1       7.128  -2.777  -4.681  0.00  0.00    +0.000 A 
ATOM      3  C   UNL     1       7.863  -3.646  -5.509  0.00  0.00    +0.000 A 
ATOM      4  N   UNL     1       8.830  -4.433  -5.000  0.00  0.00    +0.000 NA
ATOM      5  C   UNL     1       9.072  -4.332  -3.680  0.00  0.00    +0.000 A 
ATOM      6  N   UNL     1       8.434  -3.530  -2.796  0.00  0.00    +0.000 NA
ENDROOT
BRANCH   2   7
ATOM      7  C   UNL     1       6.107  -1.865  -5.163  0.00  0.00    +0.000 A 
ATOM      8  C   UNL     1       6.307  -0.475  -5.164  0.00  0.00    +0.000 A 
ATOM      9  C   UNL     1       5.296   0.356  -5.642  0.00  0.00    +0.000 A 
ATOM     10  C   UNL     1       4.132  -0.203  -6.182  0.00  0.00    +0.000 A 
ATOM     11 BR   UNL     1       2.784   0.921  -6.873  0.00  0.00    +0.000 Br
ATOM     12  C   UNL     1       3.920  -1.577  -6.180  0.00  0.00    +0.000 A 
ATOM     13  C   UNL     1       4.865  -2.393  -5.581  0.00  0.00    +0.000 A 
ENDBRANCH   2   7
BRANCH   1  14
ATOM     14  N   UNL     1       6.761  -1.911  -2.365  0.00  0.00    +0.000 N 
ATOM     15  H   UNL     1       7.306  -1.692  -1.540  0.00  0.00    +0.000 HD
BRANCH  14  16
ATOM     16  S   UNL     1       5.102  -2.103  -2.193  0.00  0.00    +0.000 S 
ATOM     17  O   UNL     1       4.781  -3.454  -1.833  0.00  0.00    +0.000 OA
ATOM     18  O   UNL     1       4.402  -1.438  -3.266  0.00  0.00    +0.000 OA
BRANCH  16  19
ATOM     19  N   UNL     1       4.630  -1.106  -0.923  0.00  0.00    +0.000 NA
ATOM     20  H   UNL     1       4.933  -1.488  -0.033  0.00  0.00    +0.000 HD
BRANCH  19  21
ATOM     21  C   UNL     1       3.116  -0.986  -0.982  0.00  0.00    +0.000 C 
BRANCH  21  23
ATOM     22  C   UNL     1       1.060  -0.058   0.076  0.00  0.00    +0.000 C 
ATOM     23  C   UNL     1       2.585  -0.064   0.092  0.00  0.00    +0.000 C 
ENDBRANCH  21  23
ENDBRANCH  19  21
ENDBRANCH  16  19
ENDBRANCH  14  16
ENDBRANCH   1  14
BRANCH   3  24
ATOM     24  O   UNL     1       7.753  -3.804  -6.890  0.00  0.00    +0.000 OA
BRANCH  24  25
ATOM     25  C   UNL     1       6.720  -3.078  -7.547  0.00  0.00    +0.000 C 
BRANCH  25  26
ATOM     26  C   UNL     1       6.428  -3.284  -9.018  0.00  0.00    +0.000 C 
BRANCH  26  27
ATOM     27  O   UNL     1       5.353  -2.375  -9.336  0.00  0.00    +0.000 OA
BRANCH  27  28
ATOM     28  C   UNL     1       4.964  -2.476 -10.647  0.00  0.00    +0.000 A 
ATOM     29  N   UNL     1       4.757  -1.312 -11.283  0.00  0.00    +0.000 NA
ATOM     30  C   UNL     1       4.387  -1.405 -12.579  0.00  0.00    +0.000 A 
ATOM     31  C   UNL     1       4.200  -2.602 -13.229  0.00  0.00    +0.000 A 
ATOM     32 BR   UNL     1       3.727  -2.695 -15.043  0.00  0.00    +0.000 Br
ATOM     33  C   UNL     1       4.397  -3.730 -12.464  0.00  0.00    +0.000 A 
ATOM     34  N   UNL     1       4.783  -3.699 -11.170  0.00  0.00    +0.000 NA
ENDBRANCH  27  28
ENDBRANCH  26  27
ENDBRANCH  25  26
ENDBRANCH  24  25
ENDBRANCH   3  24
TORSDOF 11
