REMARK  Name = Macimorelin
REMARK  12 active torsions:
REMARK  status: ('A' for Active; 'I' for Inactive)
REMARK    1  A    between atoms: C_1  and  C_2
REMARK    2  A    between atoms: C_2  and  C_3
REMARK    3  A    between atoms: C_2  and  N_4
REMARK    4  A    between atoms: C_2  and  C_5
REMARK    5  A    between atoms: N_7  and  C_8
REMARK    6  A    between atoms: C_8  and  C_9
REMARK    7  A    between atoms: C_8  and  C_19
REMARK    8  A    between atoms: C_9  and  C_10
REMARK    9  A    between atoms: N_21  and  C_22
REMARK   10  A    between atoms: C_22  and  C_23
REMARK   11  A    between atoms: C_22  and  N_33
REMARK   12  A    between atoms: C_23  and  C_24
REMARK                            x       y       z     vdW  Elec       q    Type
REMARK                         _______ _______ _______ _____ _____    ______ ____
ROOT
ATOM      1  C   UNL     1       9.615   0.561  -1.346  0.00  0.00    +0.000 C 
ENDROOT
BRANCH   1   4
ATOM      2  C   UNL     1      10.494   2.844  -0.556  0.00  0.00    +0.000 C 
ATOM      3  O   UNL     1      10.135   3.995  -0.303  0.00  0.00    +0.000 OA
ATOM      4  N   UNL     1       9.563   2.028  -1.098  0.00  0.00    +0.000 N 
ATOM      5  H   UNL     1       8.708   2.570  -1.230  0.00  0.00    +0.000 HD
BRANCH   2   7
ATOM      6  C   UNL     1      12.789   3.386   0.201  0.00  0.00    +0.000 C 
ATOM      7  C   UNL     1      11.928   2.322  -0.421  0.00  0.00    +0.000 C 
ATOM      8  C   UNL     1      12.417   1.932  -1.822  0.00  0.00    +0.000 C 
BRANCH   7   9
ATOM      9  N   UNL     1      12.148   1.305   0.610  0.00  0.00    +0.000 NA
ATOM     10  H   UNL     1      12.706   0.520   0.291  0.00  0.00    +0.000 HD
ATOM     11  H   UNL     1      11.338   1.033   1.147  0.00  0.00    +0.000 HD
ENDBRANCH   7   9
ENDBRANCH   2   7
ENDBRANCH   1   4
BRANCH   1  12
ATOM     12  C   UNL     1       9.855  -0.009  -2.782  0.00  0.00    +0.000 C 
ATOM     13  O   UNL     1      10.584  -0.989  -2.958  0.00  0.00    +0.000 OA
ATOM     14  N   UNL     1       9.150   0.453  -3.871  0.00  0.00    +0.000 N 
ATOM     15  H   UNL     1       9.298  -0.127  -4.688  0.00  0.00    +0.000 HD
BRANCH  14  16
ATOM     16  C   UNL     1       8.570   1.768  -4.148  0.00  0.00    +0.000 C 
BRANCH  16  17
ATOM     17  N   UNL     1       9.146   2.234  -5.390  0.00  0.00    +0.000 N 
ATOM     18  C   UNL     1      10.484   2.499  -5.587  0.00  0.00    +0.000 C 
ATOM     19  O   UNL     1      10.903   3.050  -6.562  0.00  0.00    +0.000 OA
ATOM     20  H   UNL     1       8.559   2.712  -6.063  0.00  0.00    +0.000 HD
ENDBRANCH  16  17
BRANCH  16  21
ATOM     21  C   UNL     1       6.952   1.810  -4.207  0.00  0.00    +0.000 C 
BRANCH  21  22
ATOM     22  C   UNL     1       6.208   1.272  -3.007  0.00  0.00    +0.000 A 
ATOM     23  C   UNL     1       6.872   1.047  -1.879  0.00  0.00    +0.000 A 
ATOM     24  N   UNL     1       6.258   0.472  -0.855  0.00  0.00    +0.000 N 
ATOM     25  C   UNL     1       4.963   0.436  -1.244  0.00  0.00    +0.000 A 
ATOM     26  C   UNL     1       3.871   0.002  -0.517  0.00  0.00    +0.000 A 
ATOM     27  C   UNL     1       2.663   0.110  -1.188  0.00  0.00    +0.000 A 
ATOM     28  C   UNL     1       2.580   0.621  -2.493  0.00  0.00    +0.000 A 
ATOM     29  C   UNL     1       3.697   1.041  -3.201  0.00  0.00    +0.000 A 
ATOM     30  C   UNL     1       4.918   0.943  -2.571  0.00  0.00    +0.000 A 
ATOM     31  H   UNL     1       6.662   0.138   0.021  0.00  0.00    +0.000 HD
ENDBRANCH  21  22
ENDBRANCH  16  21
ENDBRANCH  14  16
ENDBRANCH   1  12
BRANCH   1  32
ATOM     32  C   UNL     1      10.099  -0.227  -0.198  0.00  0.00    +0.000 C 
BRANCH  32  33
ATOM     33  C   UNL     1       9.571  -1.573  -0.004  0.00  0.00    +0.000 A 
ATOM     34  C   UNL     1       8.620  -2.285  -0.694  0.00  0.00    +0.000 A 
ATOM     35  N   UNL     1       8.697  -3.565  -0.229  0.00  0.00    +0.000 N 
ATOM     36  C   UNL     1       9.586  -3.636   0.821  0.00  0.00    +0.000 A 
ATOM     37  C   UNL     1       9.983  -4.701   1.617  0.00  0.00    +0.000 A 
ATOM     38  C   UNL     1      10.918  -4.434   2.631  0.00  0.00    +0.000 A 
ATOM     39  C   UNL     1      11.466  -3.168   2.824  0.00  0.00    +0.000 A 
ATOM     40  C   UNL     1      11.087  -2.123   2.000  0.00  0.00    +0.000 A 
ATOM     41  C   UNL     1      10.126  -2.376   1.003  0.00  0.00    +0.000 A 
ATOM     42  H   UNL     1       8.193  -4.345  -0.624  0.00  0.00    +0.000 HD
ENDBRANCH  32  33
ENDBRANCH   1  32
TORSDOF 10
