REMARK  Name = Mafenide
REMARK  4 active torsions:
REMARK  status: ('A' for Active; 'I' for Inactive)
REMARK    1  A    between atoms: N_1  and  C_2
REMARK    2  A    between atoms: C_2  and  C_3
REMARK    3  A    between atoms: C_6  and  S_9
REMARK    4  A    between atoms: S_9  and  N_10
REMARK                            x       y       z     vdW  Elec       q    Type
REMARK                         _______ _______ _______ _____ _____    ______ ____
ROOT
ATOM      1  C   UNL     1       2.859   0.862   1.090  0.00  0.00    +0.000 A 
ATOM      2  C   UNL     1       3.212   0.393   2.364  0.00  0.00    +0.000 A 
ATOM      3  C   UNL     1       3.373   1.289   3.425  0.00  0.00    +0.000 A 
ATOM      4  C   UNL     1       3.266   2.664   3.190  0.00  0.00    +0.000 A 
ATOM      5  C   UNL     1       2.961   3.146   1.917  0.00  0.00    +0.000 A 
ATOM      6  C   UNL     1       2.767   2.246   0.871  0.00  0.00    +0.000 A 
ENDROOT
BRANCH   4   7
ATOM      7  S   UNL     1       3.653   3.809   4.489  0.00  0.00    +0.000 S 
ATOM      8  O   UNL     1       4.933   3.419   5.039  0.00  0.00    +0.000 OA
ATOM      9  O   UNL     1       3.378   5.144   4.020  0.00  0.00    +0.000 OA
BRANCH   7  10
ATOM     10  N   UNL     1       2.496   3.460   5.634  0.00  0.00    +0.000 NA
ATOM     11  H   UNL     1       2.648   2.625   6.189  0.00  0.00    +0.000 HD
ATOM     12  H   UNL     1       1.557   3.793   5.439  0.00  0.00    +0.000 HD
ENDBRANCH   7  10
ENDBRANCH   4   7
BRANCH   1  13
ATOM     13  C   UNL     1       2.409  -0.088   0.008  0.00  0.00    +0.000 C 
BRANCH  13  14
ATOM     14  N   UNL     1       0.949  -0.127  -0.007  0.00  0.00    +0.000 NA
ATOM     15  H   UNL     1       0.624  -0.706  -0.776  0.00  0.00    +0.000 HD
ATOM     16  H   UNL     1       0.595   0.813  -0.183  0.00  0.00    +0.000 HD
ENDBRANCH  13  14
ENDBRANCH   1  13
TORSDOF 4
