REMARK  Name = Magnesium acetate tetrahydrate
REMARK  2 active torsions:
REMARK  status: ('A' for Active; 'I' for Inactive)
REMARK    1  A    between atoms: C_6  and  C_7
REMARK    2  A    between atoms: C_10  and  C_11
REMARK                            x       y       z     vdW  Elec       q    Type
REMARK                         _______ _______ _______ _____ _____    ______ ____
ROOT
ATOM      1  O   HOH     1       1.724   0.774   1.346  0.00  0.00    +0.000 OA
ATOM      2  H   HOH     0       2.664   0.821   0.883  0.00  0.00    +0.000 HD
ATOM      3  H   HOH     0       1.481   1.147   0.391  0.00  0.00    +0.000 HD
ENDROOT
TORSDOF 0
REMARK  Name = Magnesium acetate tetrahydrate
REMARK  2 active torsions:
REMARK  status: ('A' for Active; 'I' for Inactive)
REMARK    1  A    between atoms: C_6  and  C_7
REMARK    2  A    between atoms: C_10  and  C_11
REMARK                            x       y       z     vdW  Elec       q    Type
REMARK                         _______ _______ _______ _____ _____    ______ ____
ROOT
ATOM      1  O   HOH     2       0.958   2.747   0.697  0.00  0.00    +0.000 OA
ATOM      2  H   HOH     0       1.938   2.548   0.782  0.00  0.00    +0.000 HD
ATOM      3  H   HOH     0       0.571   2.127   1.337  0.00  0.00    +0.000 HD
ENDROOT
TORSDOF 0
REMARK  Name = Magnesium acetate tetrahydrate
REMARK  2 active torsions:
REMARK  status: ('A' for Active; 'I' for Inactive)
REMARK    1  A    between atoms: C_6  and  C_7
REMARK    2  A    between atoms: C_10  and  C_11
REMARK                            x       y       z     vdW  Elec       q    Type
REMARK                         _______ _______ _______ _____ _____    ______ ____
ROOT
ATOM      1  O   HOH     3       0.352  -2.943   0.280  0.00  0.00    +0.000 OA
ATOM      2  H   HOH     0       1.314  -2.952   0.099  0.00  0.00    +0.000 HD
ATOM      3  H   HOH     0       0.010  -2.090  -0.046  0.00  0.00    +0.000 HD
ENDROOT
TORSDOF 0
REMARK  Name = Magnesium acetate tetrahydrate
REMARK  2 active torsions:
REMARK  status: ('A' for Active; 'I' for Inactive)
REMARK    1  A    between atoms: C_6  and  C_7
REMARK    2  A    between atoms: C_10  and  C_11
REMARK                            x       y       z     vdW  Elec       q    Type
REMARK                         _______ _______ _______ _____ _____    ______ ____
ROOT
ATOM      1  O   HOH     4      -1.215   0.773   0.471  0.00  0.00    +0.000 OA
ATOM      2  H   HOH     0      -0.281   1.010   0.412  0.00  0.00    +0.000 HD
ATOM      3  H   HOH     0      -1.364   0.358  -0.407  0.00  0.00    +0.000 HD
ENDROOT
TORSDOF 0
REMARK  Name = Magnesium acetate tetrahydrate
REMARK  2 active torsions:
REMARK  status: ('A' for Active; 'I' for Inactive)
REMARK    1  A    between atoms: C_6  and  C_7
REMARK    2  A    between atoms: C_10  and  C_11
REMARK                            x       y       z     vdW  Elec       q    Type
REMARK                         _______ _______ _______ _____ _____    ______ ____
ROOT
ATOM      1 MG   UNL     5       2.060  -0.550   2.490  0.00  0.00    +0.000 Mg
ENDROOT
TORSDOF 0
REMARK  Name = Magnesium acetate tetrahydrate
REMARK  2 active torsions:
REMARK  status: ('A' for Active; 'I' for Inactive)
REMARK    1  A    between atoms: C_6  and  C_7
REMARK    2  A    between atoms: C_10  and  C_11
REMARK                            x       y       z     vdW  Elec       q    Type
REMARK                         _______ _______ _______ _____ _____    ______ ____
ROOT
ATOM      1  C   UNL     6       0.708   0.451  -1.466  0.00  0.00    +0.000 C 
ATOM      2  C   UNL     6       2.399   0.999  -1.452  0.00  0.00    +0.000 C 
ATOM      3  O   UNL     6       2.799   1.546  -0.381  0.00  0.00    +0.000 OA
ATOM      4  O   UNL     6       3.069   0.362  -2.406  0.00  0.00    +0.000 OA
ENDROOT
TORSDOF 0
REMARK  Name = Magnesium acetate tetrahydrate
REMARK  2 active torsions:
REMARK  status: ('A' for Active; 'I' for Inactive)
REMARK    1  A    between atoms: C_6  and  C_7
REMARK    2  A    between atoms: C_10  and  C_11
REMARK                            x       y       z     vdW  Elec       q    Type
REMARK                         _______ _______ _______ _____ _____    ______ ____
ROOT
ATOM      1  C   UNL     7       2.232  -1.155  -0.171  0.00  0.00    +0.000 C 
ATOM      2  C   UNL     7       3.733  -1.033   0.162  0.00  0.00    +0.000 C 
ATOM      3  O   UNL     7       3.701  -1.434   1.398  0.00  0.00    +0.000 OA
ATOM      4  O   UNL     7       4.604  -0.270  -0.317  0.00  0.00    +0.000 OA
ENDROOT
TORSDOF 0
