REMARK  Name = Magnesium acetate
REMARK  2 active torsions:
REMARK  status: ('A' for Active; 'I' for Inactive)
REMARK    1  A    between atoms: C_2  and  C_3
REMARK    2  A    between atoms: C_6  and  C_7
REMARK                            x       y       z     vdW  Elec       q    Type
REMARK                         _______ _______ _______ _____ _____    ______ ____
ROOT
ATOM      1 MG   UNL     1       2.240  -0.779  -1.919  0.00  0.00    +0.000 Mg
ENDROOT
TORSDOF 0
REMARK  Name = Magnesium acetate
REMARK  2 active torsions:
REMARK  status: ('A' for Active; 'I' for Inactive)
REMARK    1  A    between atoms: C_2  and  C_3
REMARK    2  A    between atoms: C_6  and  C_7
REMARK                            x       y       z     vdW  Elec       q    Type
REMARK                         _______ _______ _______ _____ _____    ______ ____
ROOT
ATOM      1  C   UNL     2      -0.027   0.914  -0.036  0.00  0.00    +0.000 C 
ATOM      2  C   UNL     2       1.348   1.391  -0.543  0.00  0.00    +0.000 C 
ATOM      3  O   UNL     2       1.646   0.774  -1.654  0.00  0.00    +0.000 OA
ATOM      4  O   UNL     2       2.088   2.015   0.236  0.00  0.00    +0.000 OA
ENDROOT
TORSDOF 0
REMARK  Name = Magnesium acetate
REMARK  2 active torsions:
REMARK  status: ('A' for Active; 'I' for Inactive)
REMARK    1  A    between atoms: C_2  and  C_3
REMARK    2  A    between atoms: C_6  and  C_7
REMARK                            x       y       z     vdW  Elec       q    Type
REMARK                         _______ _______ _______ _____ _____    ______ ____
ROOT
ATOM      1  C   UNL     3       2.058  -0.885   0.804  0.00  0.00    +0.000 C 
ATOM      2  C   UNL     3       3.570  -0.752   0.625  0.00  0.00    +0.000 C 
ATOM      3  O   UNL     3       3.859  -0.218  -0.542  0.00  0.00    +0.000 OA
ATOM      4  O   UNL     3       4.207  -1.538   1.303  0.00  0.00    +0.000 OA
ENDROOT
TORSDOF 0
