REMARK  Name = Magnesium malate
REMARK  4 active torsions:
REMARK  status: ('A' for Active; 'I' for Inactive)
REMARK    1  A    between atoms: O_2  and  C_3
REMARK    2  A    between atoms: C_3  and  C_4
REMARK    3  A    between atoms: C_3  and  C_8
REMARK    4  A    between atoms: C_4  and  C_5
REMARK                            x       y       z     vdW  Elec       q    Type
REMARK                         _______ _______ _______ _____ _____    ______ ____
ROOT
ATOM      1 MG   UNL     1       0.666  -1.494  -0.347  0.00  0.00    +0.000 Mg
ENDROOT
TORSDOF 0
REMARK  Name = Magnesium malate
REMARK  4 active torsions:
REMARK  status: ('A' for Active; 'I' for Inactive)
REMARK    1  A    between atoms: O_2  and  C_3
REMARK    2  A    between atoms: C_3  and  C_4
REMARK    3  A    between atoms: C_3  and  C_8
REMARK    4  A    between atoms: C_4  and  C_5
REMARK                            x       y       z     vdW  Elec       q    Type
REMARK                         _______ _______ _______ _____ _____    ______ ____
ROOT
ATOM      1  C   UNL     2       2.535   0.223   0.189  0.00  0.00    +0.000 C 
ENDROOT
BRANCH   1   2
ATOM      2  C   UNL     2       2.948  -1.148   0.782  0.00  0.00    +0.000 C 
ATOM      3  O   UNL     2       1.933  -1.953   0.685  0.00  0.00    +0.000 OA
ATOM      4  O   UNL     2       4.150  -1.422   0.966  0.00  0.00    +0.000 OA
ENDBRANCH   1   2
BRANCH   1   5
ATOM      5  O   UNL     2       1.027   0.238   0.086  0.00  0.00    +0.000 OA
ATOM      6  H   UNL     2       0.872   1.205  -0.193  0.00  0.00    +0.000 HD
ENDBRANCH   1   5
BRANCH   1   7
ATOM      7  C   UNL     2       3.048   1.512   0.782  0.00  0.00    +0.000 C 
BRANCH   7   8
ATOM      8  C   UNL     2       2.501   2.672  -0.060  0.00  0.00    +0.000 C 
ATOM      9  O   UNL     2       1.659   2.312  -0.950  0.00  0.00    +0.000 OA
ATOM     10  O   UNL     2       2.822   3.823   0.311  0.00  0.00    +0.000 OA
ENDBRANCH   7   8
ENDBRANCH   1   7
TORSDOF 4
