REMARK  Name = Magnesium ascorbate
REMARK  10 active torsions:
REMARK  status: ('A' for Active; 'I' for Inactive)
REMARK    1  A    between atoms: C_3  and  C_11
REMARK    2  A    between atoms: C_7  and  O_8
REMARK    3  A    between atoms: C_11  and  O_12
REMARK    4  A    between atoms: C_11  and  C_13
REMARK    5  A    between atoms: C_13  and  O_14
REMARK    6  A    between atoms: C_16  and  C_24
REMARK    7  A    between atoms: C_20  and  O_21
REMARK    8  A    between atoms: C_24  and  O_25
REMARK    9  A    between atoms: C_24  and  C_26
REMARK   10  A    between atoms: C_26  and  O_27
REMARK                            x       y       z     vdW  Elec       q    Type
REMARK                         _______ _______ _______ _____ _____    ______ ____
ROOT
ATOM      1 MG   UNL     1      -0.147  -1.064   1.230  0.00  0.00    +0.000 Mg
ENDROOT
TORSDOF 0
REMARK  Name = Magnesium ascorbate
REMARK  10 active torsions:
REMARK  status: ('A' for Active; 'I' for Inactive)
REMARK    1  A    between atoms: C_3  and  C_11
REMARK    2  A    between atoms: C_7  and  O_8
REMARK    3  A    between atoms: C_11  and  O_12
REMARK    4  A    between atoms: C_11  and  C_13
REMARK    5  A    between atoms: C_13  and  O_14
REMARK    6  A    between atoms: C_16  and  C_24
REMARK    7  A    between atoms: C_20  and  O_21
REMARK    8  A    between atoms: C_24  and  O_25
REMARK    9  A    between atoms: C_24  and  C_26
REMARK   10  A    between atoms: C_26  and  O_27
REMARK                            x       y       z     vdW  Elec       q    Type
REMARK                         _______ _______ _______ _____ _____    ______ ____
ROOT
ATOM      1  C   UNL     2       1.245   1.470   0.704  0.00  0.00    +0.000 C 
ATOM      2  O   UNL     2       1.217   0.223   1.567  0.00  0.00    +0.000 OA
ATOM      3  C   UNL     2       1.854   0.495   2.788  0.00  0.00    +0.000 C 
ATOM      4  O   UNL     2       2.050  -0.361   3.636  0.00  0.00    +0.000 OA
ATOM      5  C   UNL     2       2.141   1.914   2.842  0.00  0.00    +0.000 C 
ATOM      6  C   UNL     2       1.598   2.490   1.747  0.00  0.00    +0.000 C 
ATOM      7  O   UNL     2       1.494   3.654   1.308  0.00  0.00    +0.000 OA
ENDROOT
BRANCH   5   8
ATOM      8  O   UNL     2       2.994   2.447   3.776  0.00  0.00    +0.000 OA
ATOM      9  H   UNL     2       3.765   1.843   3.823  0.00  0.00    +0.000 HD
ENDBRANCH   5   8
BRANCH   1  10
ATOM     10  C   UNL     2       1.947   1.549  -0.966  0.00  0.00    +0.000 C 
BRANCH  10  11
ATOM     11  O   UNL     2       1.383   2.654  -1.649  0.00  0.00    +0.000 OA
ATOM     12  H   UNL     2       1.927   3.345  -1.208  0.00  0.00    +0.000 HD
ENDBRANCH  10  11
BRANCH  10  13
ATOM     13  C   UNL     2       3.654   1.667  -1.552  0.00  0.00    +0.000 C 
BRANCH  13  14
ATOM     14  O   UNL     2       3.924   1.736  -2.988  0.00  0.00    +0.000 OA
ATOM     15  H   UNL     2       4.052   0.843  -3.388  0.00  0.00    +0.000 HD
ENDBRANCH  13  14
ENDBRANCH  10  13
ENDBRANCH   1  10
TORSDOF 5
REMARK  Name = Magnesium ascorbate
REMARK  10 active torsions:
REMARK  status: ('A' for Active; 'I' for Inactive)
REMARK    1  A    between atoms: C_3  and  C_11
REMARK    2  A    between atoms: C_7  and  O_8
REMARK    3  A    between atoms: C_11  and  O_12
REMARK    4  A    between atoms: C_11  and  C_13
REMARK    5  A    between atoms: C_13  and  O_14
REMARK    6  A    between atoms: C_16  and  C_24
REMARK    7  A    between atoms: C_20  and  O_21
REMARK    8  A    between atoms: C_24  and  O_25
REMARK    9  A    between atoms: C_24  and  C_26
REMARK   10  A    between atoms: C_26  and  O_27
REMARK                            x       y       z     vdW  Elec       q    Type
REMARK                         _______ _______ _______ _____ _____    ______ ____
ROOT
ATOM      1  C   UNL     3       2.804  -0.894  -0.377  0.00  0.00    +0.000 C 
ATOM      2  O   UNL     3       2.803  -2.186   0.275  0.00  0.00    +0.000 OA
ATOM      3  C   UNL     3       3.363  -2.081   1.544  0.00  0.00    +0.000 C 
ATOM      4  O   UNL     3       2.973  -2.760   2.461  0.00  0.00    +0.000 OA
ATOM      5  C   UNL     3       4.187  -0.885   1.659  0.00  0.00    +0.000 C 
ATOM      6  C   UNL     3       3.734  -0.158   0.691  0.00  0.00    +0.000 C 
ATOM      7  O   UNL     3       3.883   1.105   0.739  0.00  0.00    +0.000 OA
ENDROOT
BRANCH   5   8
ATOM      8  O   UNL     3       4.741  -0.294   2.809  0.00  0.00    +0.000 OA
ATOM      9  H   UNL     3       4.054  -0.227   3.491  0.00  0.00    +0.000 HD
ENDBRANCH   5   8
BRANCH   1  10
ATOM     10  C   UNL     3       3.072  -0.969  -2.014  0.00  0.00    +0.000 C 
BRANCH  10  11
ATOM     11  O   UNL     3       2.432  -0.104  -3.063  0.00  0.00    +0.000 OA
ATOM     12  H   UNL     3       2.443   0.899  -3.010  0.00  0.00    +0.000 HD
ENDBRANCH  10  11
BRANCH  10  13
ATOM     13  C   UNL     3       4.597  -1.179  -2.195  0.00  0.00    +0.000 C 
BRANCH  13  14
ATOM     14  O   UNL     3       4.908  -1.270  -3.570  0.00  0.00    +0.000 OA
ATOM     15  H   UNL     3       4.080  -1.108  -4.057  0.00  0.00    +0.000 HD
ENDBRANCH  13  14
ENDBRANCH  10  13
ENDBRANCH   1  10
TORSDOF 5
