REMARK  Name = Magnesium gluconate
REMARK  20 active torsions:
REMARK  status: ('A' for Active; 'I' for Inactive)
REMARK    1  A    between atoms: O_4  and  C_5
REMARK    2  A    between atoms: C_5  and  C_6
REMARK    3  A    between atoms: C_6  and  O_7
REMARK    4  A    between atoms: C_6  and  C_8
REMARK    5  A    between atoms: C_8  and  O_9
REMARK    6  A    between atoms: C_8  and  C_10
REMARK    7  A    between atoms: C_10  and  O_11
REMARK    8  A    between atoms: C_10  and  C_12
REMARK    9  A    between atoms: C_12  and  O_13
REMARK   10  A    between atoms: C_12  and  C_14
REMARK   11  A    between atoms: O_17  and  C_18
REMARK   12  A    between atoms: C_18  and  C_19
REMARK   13  A    between atoms: C_19  and  O_20
REMARK   14  A    between atoms: C_19  and  C_21
REMARK   15  A    between atoms: C_21  and  O_22
REMARK   16  A    between atoms: C_21  and  C_23
REMARK   17  A    between atoms: C_23  and  O_24
REMARK   18  A    between atoms: C_23  and  C_25
REMARK   19  A    between atoms: C_25  and  O_26
REMARK   20  A    between atoms: C_25  and  C_27
REMARK                            x       y       z     vdW  Elec       q    Type
REMARK                         _______ _______ _______ _____ _____    ______ ____
ROOT
ATOM      1  O   HOH     1       1.681   1.158  -0.047  0.00  0.00    +0.000 OA
ATOM      2  H   HOH     0       2.639   1.404  -0.018  0.00  0.00    +0.000 HD
ATOM      3  H   HOH     0       1.336   1.715   0.682  0.00  0.00    +0.000 HD
ENDROOT
TORSDOF 0
REMARK  Name = Magnesium gluconate
REMARK  20 active torsions:
REMARK  status: ('A' for Active; 'I' for Inactive)
REMARK    1  A    between atoms: O_4  and  C_5
REMARK    2  A    between atoms: C_5  and  C_6
REMARK    3  A    between atoms: C_6  and  O_7
REMARK    4  A    between atoms: C_6  and  C_8
REMARK    5  A    between atoms: C_8  and  O_9
REMARK    6  A    between atoms: C_8  and  C_10
REMARK    7  A    between atoms: C_10  and  O_11
REMARK    8  A    between atoms: C_10  and  C_12
REMARK    9  A    between atoms: C_12  and  O_13
REMARK   10  A    between atoms: C_12  and  C_14
REMARK   11  A    between atoms: O_17  and  C_18
REMARK   12  A    between atoms: C_18  and  C_19
REMARK   13  A    between atoms: C_19  and  O_20
REMARK   14  A    between atoms: C_19  and  C_21
REMARK   15  A    between atoms: C_21  and  O_22
REMARK   16  A    between atoms: C_21  and  C_23
REMARK   17  A    between atoms: C_23  and  O_24
REMARK   18  A    between atoms: C_23  and  C_25
REMARK   19  A    between atoms: C_25  and  O_26
REMARK   20  A    between atoms: C_25  and  C_27
REMARK                            x       y       z     vdW  Elec       q    Type
REMARK                         _______ _______ _______ _____ _____    ______ ____
ROOT
ATOM      1  O   HOH     2       0.655  -0.878   0.216  0.00  0.00    +0.000 OA
ATOM      2  H   HOH     0       1.045  -0.470   1.048  0.00  0.00    +0.000 HD
ATOM      3  H   HOH     0       0.162  -0.013   0.019  0.00  0.00    +0.000 HD
ENDROOT
TORSDOF 0
REMARK  Name = Magnesium gluconate
REMARK  20 active torsions:
REMARK  status: ('A' for Active; 'I' for Inactive)
REMARK    1  A    between atoms: O_4  and  C_5
REMARK    2  A    between atoms: C_5  and  C_6
REMARK    3  A    between atoms: C_6  and  O_7
REMARK    4  A    between atoms: C_6  and  C_8
REMARK    5  A    between atoms: C_8  and  O_9
REMARK    6  A    between atoms: C_8  and  C_10
REMARK    7  A    between atoms: C_10  and  O_11
REMARK    8  A    between atoms: C_10  and  C_12
REMARK    9  A    between atoms: C_12  and  O_13
REMARK   10  A    between atoms: C_12  and  C_14
REMARK   11  A    between atoms: O_17  and  C_18
REMARK   12  A    between atoms: C_18  and  C_19
REMARK   13  A    between atoms: C_19  and  O_20
REMARK   14  A    between atoms: C_19  and  C_21
REMARK   15  A    between atoms: C_21  and  O_22
REMARK   16  A    between atoms: C_21  and  C_23
REMARK   17  A    between atoms: C_23  and  O_24
REMARK   18  A    between atoms: C_23  and  C_25
REMARK   19  A    between atoms: C_25  and  O_26
REMARK   20  A    between atoms: C_25  and  C_27
REMARK                            x       y       z     vdW  Elec       q    Type
REMARK                         _______ _______ _______ _____ _____    ______ ____
ROOT
ATOM      1 MG   UNL     3       1.790  -1.852  -0.873  0.00  0.00    +0.000 Mg
ENDROOT
TORSDOF 0
REMARK  Name = Magnesium gluconate
REMARK  20 active torsions:
REMARK  status: ('A' for Active; 'I' for Inactive)
REMARK    1  A    between atoms: O_4  and  C_5
REMARK    2  A    between atoms: C_5  and  C_6
REMARK    3  A    between atoms: C_6  and  O_7
REMARK    4  A    between atoms: C_6  and  C_8
REMARK    5  A    between atoms: C_8  and  O_9
REMARK    6  A    between atoms: C_8  and  C_10
REMARK    7  A    between atoms: C_10  and  O_11
REMARK    8  A    between atoms: C_10  and  C_12
REMARK    9  A    between atoms: C_12  and  O_13
REMARK   10  A    between atoms: C_12  and  C_14
REMARK   11  A    between atoms: O_17  and  C_18
REMARK   12  A    between atoms: C_18  and  C_19
REMARK   13  A    between atoms: C_19  and  O_20
REMARK   14  A    between atoms: C_19  and  C_21
REMARK   15  A    between atoms: C_21  and  O_22
REMARK   16  A    between atoms: C_21  and  C_23
REMARK   17  A    between atoms: C_23  and  O_24
REMARK   18  A    between atoms: C_23  and  C_25
REMARK   19  A    between atoms: C_25  and  O_26
REMARK   20  A    between atoms: C_25  and  C_27
REMARK                            x       y       z     vdW  Elec       q    Type
REMARK                         _______ _______ _______ _____ _____    ______ ____
ROOT
ATOM      1  C   UNL     4       4.413  -3.725  -0.986  0.00  0.00    +0.000 C 
ENDROOT
BRANCH   1   2
ATOM      2  O   UNL     4       3.251  -2.904  -1.544  0.00  0.00    +0.000 OA
ATOM      3  H   UNL     4       3.803  -2.265  -2.060  0.00  0.00    +0.000 HD
ENDBRANCH   1   2
BRANCH   1   4
ATOM      4  C   UNL     4       5.482  -3.944  -2.113  0.00  0.00    +0.000 C 
BRANCH   4   5
ATOM      5  O   UNL     4       6.474  -4.888  -1.765  0.00  0.00    +0.000 OA
ATOM      6  H   UNL     4       7.294  -4.495  -1.391  0.00  0.00    +0.000 HD
ENDBRANCH   4   5
BRANCH   4   7
ATOM      7  C   UNL     4       6.080  -2.633  -2.669  0.00  0.00    +0.000 C 
BRANCH   7   8
ATOM      8  O   UNL     4       7.115  -2.884  -3.592  0.00  0.00    +0.000 OA
ATOM      9  H   UNL     4       7.669  -2.085  -3.651  0.00  0.00    +0.000 HD
ENDBRANCH   7   8
ENDBRANCH   4   7
ENDBRANCH   1   4
BRANCH   1  10
ATOM     10  C   UNL     4       4.887  -2.928   0.252  0.00  0.00    +0.000 C 
BRANCH  10  11
ATOM     11  O   UNL     4       4.339  -1.571  -0.002  0.00  0.00    +0.000 OA
ATOM     12  H   UNL     4       5.137  -1.068  -0.287  0.00  0.00    +0.000 HD
ENDBRANCH  10  11
BRANCH  10  13
ATOM     13  C   UNL     4       6.391  -2.939   0.573  0.00  0.00    +0.000 C 
BRANCH  13  14
ATOM     14  C   UNL     4       6.901  -4.383   0.870  0.00  0.00    +0.000 C 
ATOM     15  O   UNL     4       5.963  -5.211   1.139  0.00  0.00    +0.000 OA
ATOM     16  O   UNL     4       8.109  -4.556   0.639  0.00  0.00    +0.000 OA
ENDBRANCH  13  14
BRANCH  13  17
ATOM     17  O   UNL     4       6.604  -2.016   1.659  0.00  0.00    +0.000 OA
ATOM     18  H   UNL     4       6.787  -2.567   2.448  0.00  0.00    +0.000 HD
ENDBRANCH  13  17
ENDBRANCH  10  13
ENDBRANCH   1  10
TORSDOF 10
REMARK  Name = Magnesium gluconate
REMARK  20 active torsions:
REMARK  status: ('A' for Active; 'I' for Inactive)
REMARK    1  A    between atoms: O_4  and  C_5
REMARK    2  A    between atoms: C_5  and  C_6
REMARK    3  A    between atoms: C_6  and  O_7
REMARK    4  A    between atoms: C_6  and  C_8
REMARK    5  A    between atoms: C_8  and  O_9
REMARK    6  A    between atoms: C_8  and  C_10
REMARK    7  A    between atoms: C_10  and  O_11
REMARK    8  A    between atoms: C_10  and  C_12
REMARK    9  A    between atoms: C_12  and  O_13
REMARK   10  A    between atoms: C_12  and  C_14
REMARK   11  A    between atoms: O_17  and  C_18
REMARK   12  A    between atoms: C_18  and  C_19
REMARK   13  A    between atoms: C_19  and  O_20
REMARK   14  A    between atoms: C_19  and  C_21
REMARK   15  A    between atoms: C_21  and  O_22
REMARK   16  A    between atoms: C_21  and  C_23
REMARK   17  A    between atoms: C_23  and  O_24
REMARK   18  A    between atoms: C_23  and  C_25
REMARK   19  A    between atoms: C_25  and  O_26
REMARK   20  A    between atoms: C_25  and  C_27
REMARK                            x       y       z     vdW  Elec       q    Type
REMARK                         _______ _______ _______ _____ _____    ______ ____
ROOT
ATOM      1  C   UNL     5       4.372   2.636   2.837  0.00  0.00    +0.000 C 
ENDROOT
BRANCH   1   2
ATOM      2  O   UNL     5       2.976   3.010   2.853  0.00  0.00    +0.000 OA
ATOM      3  H   UNL     5       2.547   2.559   2.124  0.00  0.00    +0.000 HD
ENDBRANCH   1   2
BRANCH   1   4
ATOM      4  C   UNL     5       4.506   1.246   3.513  0.00  0.00    +0.000 C 
BRANCH   4   5
ATOM      5  O   UNL     5       5.860   0.820   3.605  0.00  0.00    +0.000 OA
ATOM      6  H   UNL     5       6.184   0.450   2.768  0.00  0.00    +0.000 HD
ENDBRANCH   4   5
BRANCH   4   7
ATOM      7  C   UNL     5       3.614   0.172   2.861  0.00  0.00    +0.000 C 
BRANCH   7   8
ATOM      8  O   UNL     5       3.657  -1.078   3.525  0.00  0.00    +0.000 OA
ATOM      9  H   UNL     5       3.477  -1.776   2.878  0.00  0.00    +0.000 HD
ENDBRANCH   7   8
ENDBRANCH   4   7
ENDBRANCH   1   4
BRANCH   1  10
ATOM     10  C   UNL     5       4.920   2.711   1.385  0.00  0.00    +0.000 C 
BRANCH  10  11
ATOM     11  O   UNL     5       4.421   1.569   0.606  0.00  0.00    +0.000 OA
ATOM     12  H   UNL     5       5.203   0.971   0.645  0.00  0.00    +0.000 HD
ENDBRANCH  10  11
BRANCH  10  13
ATOM     13  C   UNL     5       6.454   2.753   1.302  0.00  0.00    +0.000 C 
BRANCH  13  14
ATOM     14  C   UNL     5       7.012   4.063   1.930  0.00  0.00    +0.000 C 
ATOM     15  O   UNL     5       6.150   4.928   2.224  0.00  0.00    +0.000 OA
ATOM     16  O   UNL     5       8.272   4.104   2.045  0.00  0.00    +0.000 OA
ENDBRANCH  13  14
BRANCH  13  17
ATOM     17  O   UNL     5       6.786   2.606  -0.111  0.00  0.00    +0.000 OA
ATOM     18  H   UNL     5       6.756   3.517  -0.463  0.00  0.00    +0.000 HD
ENDBRANCH  13  17
ENDBRANCH  10  13
ENDBRANCH   1  10
TORSDOF 10
