REMARK  Name = Magnesium silicate
REMARK  0 active torsions:
REMARK  status: ('A' for Active; 'I' for Inactive)
REMARK                            x       y       z     vdW  Elec       q    Type
REMARK                         _______ _______ _______ _____ _____    ______ ____
ROOT
ATOM      1  O   HOH     1       0.955  -0.083   0.033  0.00  0.00    +0.000 OA
ENDROOT
TORSDOF 0
REMARK  Name = Magnesium silicate
REMARK  0 active torsions:
REMARK  status: ('A' for Active; 'I' for Inactive)
REMARK                            x       y       z     vdW  Elec       q    Type
REMARK                         _______ _______ _______ _____ _____    ______ ____
ROOT
ATOM      1  O   HOH     1       0.959   0.091   0.001  0.00  0.00    +0.000 OA
ENDROOT
TORSDOF 0
REMARK  Name = Magnesium silicate
REMARK  0 active torsions:
REMARK  status: ('A' for Active; 'I' for Inactive)
REMARK                            x       y       z     vdW  Elec       q    Type
REMARK                         _______ _______ _______ _____ _____    ______ ____
ROOT
ATOM      1  O   HOH     1       0.901   0.008  -0.009  0.00  0.00    +0.000 OA
ENDROOT
TORSDOF 0
REMARK  Name = Magnesium silicate
REMARK  0 active torsions:
REMARK  status: ('A' for Active; 'I' for Inactive)
REMARK                            x       y       z     vdW  Elec       q    Type
REMARK                         _______ _______ _______ _____ _____    ______ ____
ROOT
ATOM      1 MG   UNL     1       1.058  -0.070   0.042  0.00  0.00    +0.000 Mg
ENDROOT
TORSDOF 0
REMARK  Name = Magnesium silicate
REMARK  0 active torsions:
REMARK  status: ('A' for Active; 'I' for Inactive)
REMARK                            x       y       z     vdW  Elec       q    Type
REMARK                         _______ _______ _______ _____ _____    ______ ____
ROOT
ATOM      1 SI   UNL     1       0.950   0.066  -0.057  0.00  0.00    +0.000 Si
ENDROOT
TORSDOF 0
