REMARK  Name = Magnesium hydroxide
REMARK  0 active torsions:
REMARK  status: ('A' for Active; 'I' for Inactive)
REMARK                            x       y       z     vdW  Elec       q    Type
REMARK                         _______ _______ _______ _____ _____    ______ ____
ROOT
ATOM      1  O   HOH     1       1.330  -1.123   1.235  0.00  0.00    +0.000 OA
ATOM      2  H   HOH     0       1.902  -0.557   1.702  0.00  0.00    +0.000 HD
ENDROOT
TORSDOF 0
REMARK  Name = Magnesium hydroxide
REMARK  0 active torsions:
REMARK  status: ('A' for Active; 'I' for Inactive)
REMARK                            x       y       z     vdW  Elec       q    Type
REMARK                         _______ _______ _______ _____ _____    ______ ____
ROOT
ATOM      1  O   HOH     1       1.095   0.786  -1.452  0.00  0.00    +0.000 OA
ATOM      2  H   HOH     0       1.631   1.483  -1.099  0.00  0.00    +0.000 HD
ENDROOT
TORSDOF 0
REMARK  Name = Magnesium hydroxide
REMARK  0 active torsions:
REMARK  status: ('A' for Active; 'I' for Inactive)
REMARK                            x       y       z     vdW  Elec       q    Type
REMARK                         _______ _______ _______ _____ _____    ______ ____
ROOT
ATOM      1 MG   UNL     1       0.940  -0.550  -0.360  0.00  0.00    +0.000 Mg
ENDROOT
TORSDOF 0
