REMARK  Name = Magnesium glycinate
REMARK  4 active torsions:
REMARK  status: ('A' for Active; 'I' for Inactive)
REMARK    1  A    between atoms: N_2  and  CA_3
REMARK    2  A    between atoms: CA_3  and  C_4
REMARK    3  A    between atoms: N_7  and  CA_8
REMARK    4  A    between atoms: CA_8  and  C_9
REMARK                            x       y       z     vdW  Elec       q    Type
REMARK                         _______ _______ _______ _____ _____    ______ ____
ROOT
ATOM      1 MG   UNL     1       2.004   1.919  -2.022  0.00  0.00    +0.000 Mg
ENDROOT
TORSDOF 0
REMARK  Name = Magnesium glycinate
REMARK  4 active torsions:
REMARK  status: ('A' for Active; 'I' for Inactive)
REMARK    1  A    between atoms: N_2  and  CA_3
REMARK    2  A    between atoms: CA_3  and  C_4
REMARK    3  A    between atoms: N_7  and  CA_8
REMARK    4  A    between atoms: CA_8  and  C_9
REMARK                            x       y       z     vdW  Elec       q    Type
REMARK                         _______ _______ _______ _____ _____    ______ ____
ROOT
ATOM      1  CA  GLY A   1       3.106  -1.185  -0.230  0.00  0.00    +0.000 C 
ENDROOT
BRANCH   1   2
ATOM      2  N   GLY A   1       1.625  -1.369  -0.453  0.00  0.00    +0.000 NA
ATOM      3  H1  GLY A   1       1.097  -0.568  -0.732  0.00  0.00    +0.000 HD
ATOM      4  H2  GLY A   1       1.329  -1.432   0.564  0.00  0.00    +0.000 HD
ENDBRANCH   1   2
BRANCH   1   5
ATOM      5  C   GLY A   1       3.463  -1.870   1.130  0.00  0.00    +0.000 C 
ATOM      6  O   GLY A   1       2.397  -2.122   1.823  0.00  0.00    +0.000 OA
ATOM      7  OXT GLY A   1       4.655  -1.844   1.454  0.00  0.00    +0.000 OA
ENDBRANCH   1   5
TORSDOF 2
REMARK  Name = Magnesium glycinate
REMARK  4 active torsions:
REMARK  status: ('A' for Active; 'I' for Inactive)
REMARK    1  A    between atoms: N_2  and  CA_3
REMARK    2  A    between atoms: CA_3  and  C_4
REMARK    3  A    between atoms: N_7  and  CA_8
REMARK    4  A    between atoms: CA_8  and  C_9
REMARK                            x       y       z     vdW  Elec       q    Type
REMARK                         _______ _______ _______ _____ _____    ______ ____
ROOT
ATOM      1  CA  GLY B   1       1.657   1.166   0.654  0.00  0.00    +0.000 C 
ENDROOT
BRANCH   1   2
ATOM      2  N   GLY B   1       0.211   0.919   0.269  0.00  0.00    +0.000 NA
ATOM      3  H1  GLY B   1      -0.062   0.016   0.725  0.00  0.00    +0.000 HD
ATOM      4  H2  GLY B   1      -0.131   0.730  -0.674  0.00  0.00    +0.000 HD
ENDBRANCH   1   2
BRANCH   1   5
ATOM      5  C   GLY B   1       2.472   2.376   0.161  0.00  0.00    +0.000 C 
ATOM      6  O   GLY B   1       1.780   3.025  -0.731  0.00  0.00    +0.000 OA
ATOM      7  OXT GLY B   1       3.671   2.145  -0.185  0.00  0.00    +0.000 OA
ENDBRANCH   1   5
TORSDOF 2
