REMARK  Name = Magnesium sulfate
REMARK  0 active torsions:
REMARK  status: ('A' for Active; 'I' for Inactive)
REMARK                            x       y       z     vdW  Elec       q    Type
REMARK                         _______ _______ _______ _____ _____    ______ ____
ROOT
ATOM      1 MG   UNL     1       0.841   0.823  -0.514  0.00  0.00    +0.000 Mg
ENDROOT
TORSDOF 0
REMARK  Name = Magnesium sulfate
REMARK  0 active torsions:
REMARK  status: ('A' for Active; 'I' for Inactive)
REMARK                            x       y       z     vdW  Elec       q    Type
REMARK                         _______ _______ _______ _____ _____    ______ ____
ROOT
ATOM      1  O   UNL     1       1.402  -0.513   0.449  0.00  0.00    +0.000 OA
ATOM      2  S   UNL     1       2.853  -0.233   0.253  0.00  0.00    +0.000 S 
ATOM      3  O   UNL     1       3.457   0.167   1.497  0.00  0.00    +0.000 OA
ATOM      4  O   UNL     1       3.470  -1.288  -0.506  0.00  0.00    +0.000 OA
ATOM      5  O   UNL     1       2.586   0.954  -0.609  0.00  0.00    +0.000 OA
ENDROOT
TORSDOF 0
