REMARK  Name = Magnesium trisilicate
REMARK  4 active torsions:
REMARK  status: ('A' for Active; 'I' for Inactive)
REMARK    1  A    between atoms: SI_4  and  O_6
REMARK    2  A    between atoms: O_6  and  SI_7
REMARK    3  A    between atoms: SI_7  and  O_10
REMARK    4  A    between atoms: O_10  and  SI_11
REMARK                            x       y       z     vdW  Elec       q    Type
REMARK                         _______ _______ _______ _____ _____    ______ ____
ROOT
ATOM      1 MG   UNL     1       1.272   2.637  -1.339  0.00  0.00    +0.000 Mg
ENDROOT
TORSDOF 0
REMARK  Name = Magnesium trisilicate
REMARK  4 active torsions:
REMARK  status: ('A' for Active; 'I' for Inactive)
REMARK    1  A    between atoms: SI_4  and  O_6
REMARK    2  A    between atoms: O_6  and  SI_7
REMARK    3  A    between atoms: SI_7  and  O_10
REMARK    4  A    between atoms: O_10  and  SI_11
REMARK                            x       y       z     vdW  Elec       q    Type
REMARK                         _______ _______ _______ _____ _____    ______ ____
ROOT
ATOM      1 MG   UNL     2       0.290  -2.190   0.691  0.00  0.00    +0.000 Mg
ENDROOT
TORSDOF 0
REMARK  Name = Magnesium trisilicate
REMARK  4 active torsions:
REMARK  status: ('A' for Active; 'I' for Inactive)
REMARK    1  A    between atoms: SI_4  and  O_6
REMARK    2  A    between atoms: O_6  and  SI_7
REMARK    3  A    between atoms: SI_7  and  O_10
REMARK    4  A    between atoms: O_10  and  SI_11
REMARK                            x       y       z     vdW  Elec       q    Type
REMARK                         _______ _______ _______ _____ _____    ______ ____
ROOT
ATOM      1 SI   UNL     3       5.315  -0.167   1.834  0.00  0.00    +0.000 Si
ATOM      2  O   UNL     3       5.446  -1.431   0.782  0.00  0.00    +0.000 OA
ATOM      3  O   UNL     3       5.712   1.207   1.064  0.00  0.00    +0.000 OA
ENDROOT
BRANCH   1   4
ATOM      4  O   UNL     3       3.616   0.035   1.770  0.00  0.00    +0.000 OA
BRANCH   4   6
ATOM      5  O   UNL     3       1.578  -0.840   0.230  0.00  0.00    +0.000 OA
ATOM      6 SI   UNL     3       3.149   0.097   0.163  0.00  0.00    +0.000 Si
ATOM      7  O   UNL     3       2.419   1.361  -0.340  0.00  0.00    +0.000 OA
ENDBRANCH   4   6
ENDBRANCH   1   4
BRANCH   1   8
ATOM      8  O   UNL     3       5.951  -0.570   3.256  0.00  0.00    +0.000 OA
BRANCH   8   9
ATOM      9 SI   UNL     3       7.597  -0.593   3.445  0.00  0.00    +0.000 Si
ATOM     10  O   UNL     3       8.063   0.889   2.956  0.00  0.00    +0.000 OA
ATOM     11  O   UNL     3       7.839  -0.803   4.892  0.00  0.00    +0.000 OA
ENDBRANCH   8   9
ENDBRANCH   1   8
TORSDOF 4
