REMARK  Name = Magnesium carbonate
REMARK  0 active torsions:
REMARK  status: ('A' for Active; 'I' for Inactive)
REMARK                            x       y       z     vdW  Elec       q    Type
REMARK                         _______ _______ _______ _____ _____    ______ ____
ROOT
ATOM      1 MG   UNL     1       1.430  -0.514  -0.929  0.00  0.00    +0.000 Mg
ENDROOT
TORSDOF 0
REMARK  Name = Magnesium carbonate
REMARK  0 active torsions:
REMARK  status: ('A' for Active; 'I' for Inactive)
REMARK                            x       y       z     vdW  Elec       q    Type
REMARK                         _______ _______ _______ _____ _____    ______ ____
ROOT
ATOM      1  O   UNL     1       1.306   0.193   0.836  0.00  0.00    +0.000 OA
ATOM      2  C   UNL     1       2.498   0.156   0.518  0.00  0.00    +0.000 C 
ATOM      3  O   UNL     1       2.705  -1.052   0.377  0.00  0.00    +0.000 OA
ATOM      4  O   UNL     1       2.848   0.885  -0.391  0.00  0.00    +0.000 OA
ENDROOT
TORSDOF 0
