REMARK  Name = Malathion
REMARK  15 active torsions:
REMARK  status: ('A' for Active; 'I' for Inactive)
REMARK    1  A    between atoms: C_1  and  C_2
REMARK    2  A    between atoms: C_2  and  O_3
REMARK    3  A    between atoms: O_3  and  C_4
REMARK    4  A    between atoms: C_4  and  C_6
REMARK    5  A    between atoms: C_6  and  C_7
REMARK    6  A    between atoms: C_7  and  S_8
REMARK    7  A    between atoms: C_7  and  C_15
REMARK    8  A    between atoms: S_8  and  P_9
REMARK    9  A    between atoms: P_9  and  O_11
REMARK   10  A    between atoms: P_9  and  O_13
REMARK   11  A    between atoms: O_11  and  C_12
REMARK   12  A    between atoms: O_13  and  C_14
REMARK   13  A    between atoms: C_15  and  O_17
REMARK   14  A    between atoms: O_17  and  C_18
REMARK   15  A    between atoms: C_18  and  C_19
REMARK                            x       y       z     vdW  Elec       q    Type
REMARK                         _______ _______ _______ _____ _____    ______ ____
ROOT
ATOM      1  C   UNL     1       6.215  -1.918   2.733  0.00  0.00    +0.000 C 
ENDROOT
BRANCH   1   2
ATOM      2  C   UNL     1       6.777  -2.803   3.861  0.00  0.00    +0.000 C 
ATOM      3  O   UNL     1       6.069  -3.504   4.575  0.00  0.00    +0.000 OA
BRANCH   2   4
ATOM      4  O   UNL     1       8.154  -2.903   3.824  0.00  0.00    +0.000 OA
BRANCH   4   5
ATOM      5  C   UNL     1       8.713  -3.820   4.788  0.00  0.00    +0.000 C 
ATOM      6  C   UNL     1      10.237  -3.820   4.755  0.00  0.00    +0.000 C 
ENDBRANCH   4   5
ENDBRANCH   2   4
ENDBRANCH   1   2
BRANCH   1   7
ATOM      7  C   UNL     1       4.637  -1.920   2.594  0.00  0.00    +0.000 C 
BRANCH   7   8
ATOM      8  C   UNL     1       3.972  -1.084   1.493  0.00  0.00    +0.000 C 
ATOM      9  O   UNL     1       4.609  -0.398   0.695  0.00  0.00    +0.000 OA
BRANCH   8  10
ATOM     10  O   UNL     1       2.641  -1.028   1.337  0.00  0.00    +0.000 OA
BRANCH  10  12
ATOM     11  C   UNL     1       0.842  -0.001   0.103  0.00  0.00    +0.000 C 
ATOM     12  C   UNL     1       2.327  -0.110   0.227  0.00  0.00    +0.000 C 
ENDBRANCH  10  12
ENDBRANCH   8  10
ENDBRANCH   7   8
ENDBRANCH   1   7
BRANCH   1  13
ATOM     13  S   UNL     1       6.984  -0.228   2.713  0.00  0.00    +0.000 S 
BRANCH  13  14
ATOM     14  P   UNL     1       6.277   1.043   1.170  0.00  0.00    +0.000 P 
ATOM     15  S   UNL     1       7.890   2.198   1.756  0.00  0.00    +0.000 S 
BRANCH  14  16
ATOM     16  O   UNL     1       6.883   0.041  -0.112  0.00  0.00    +0.000 OA
ATOM     17  C   UNL     1       7.000  -1.358   0.031  0.00  0.00    +0.000 C 
ENDBRANCH  14  16
BRANCH  14  18
ATOM     18  O   UNL     1       5.700   2.081  -0.088  0.00  0.00    +0.000 OA
ATOM     19  C   UNL     1       6.681   2.682  -0.945  0.00  0.00    +0.000 C 
ENDBRANCH  14  18
ENDBRANCH  13  14
ENDBRANCH   1  13
TORSDOF 11
