REMARK  Name = Mandelic acid
REMARK  4 active torsions:
REMARK  status: ('A' for Active; 'I' for Inactive)
REMARK    1  A    between atoms: O_1  and  C_2
REMARK    2  A    between atoms: C_2  and  C_3
REMARK    3  A    between atoms: C_2  and  C_6
REMARK    4  A    between atoms: C_3  and  O_4
REMARK                            x       y       z     vdW  Elec       q    Type
REMARK                         _______ _______ _______ _____ _____    ______ ____
ROOT
ATOM      1  C   UNL     1       2.405   0.009   0.019  0.00  0.00    +0.000 C 
ENDROOT
BRANCH   1   2
ATOM      2  C   UNL     1       2.788   1.251   0.787  0.00  0.00    +0.000 A 
ATOM      3  C   UNL     1       3.316   1.173   2.085  0.00  0.00    +0.000 A 
ATOM      4  C   UNL     1       3.495   2.338   2.834  0.00  0.00    +0.000 A 
ATOM      5  C   UNL     1       3.252   3.586   2.260  0.00  0.00    +0.000 A 
ATOM      6  C   UNL     1       2.775   3.676   0.957  0.00  0.00    +0.000 A 
ATOM      7  C   UNL     1       2.502   2.516   0.246  0.00  0.00    +0.000 A 
ENDBRANCH   1   2
BRANCH   1   8
ATOM      8  O   UNL     1       0.978  -0.052   0.081  0.00  0.00    +0.000 OA
ATOM      9  H   UNL     1       0.706  -0.819  -0.453  0.00  0.00    +0.000 HD
ENDBRANCH   1   8
BRANCH   1  10
ATOM     10  C   UNL     1       2.898  -0.075  -1.441  0.00  0.00    +0.000 C 
ATOM     11  O   UNL     1       2.503  -0.968  -2.196  0.00  0.00    +0.000 OA
BRANCH  10  12
ATOM     12  O   UNL     1       3.769   0.857  -1.883  0.00  0.00    +0.000 OA
ATOM     13  H   UNL     1       4.023   1.549  -1.240  0.00  0.00    +0.000 HD
ENDBRANCH  10  12
ENDBRANCH   1  10
TORSDOF 4
