REMARK  Name = Manganese gluconate
REMARK  20 active torsions:
REMARK  status: ('A' for Active; 'I' for Inactive)
REMARK    1  A    between atoms: C_3  and  O_4
REMARK    2  A    between atoms: C_3  and  C_5
REMARK    3  A    between atoms: C_3  and  C_7
REMARK    4  A    between atoms: C_5  and  O_6
REMARK    5  A    between atoms: C_7  and  O_9
REMARK    6  A    between atoms: C_7  and  C_10
REMARK    7  A    between atoms: C_10  and  O_12
REMARK    8  A    between atoms: C_10  and  C_13
REMARK    9  A    between atoms: C_13  and  O_15
REMARK   10  A    between atoms: C_13  and  C_16
REMARK   11  A    between atoms: C_20  and  O_21
REMARK   12  A    between atoms: C_20  and  C_22
REMARK   13  A    between atoms: C_20  and  C_24
REMARK   14  A    between atoms: C_22  and  O_23
REMARK   15  A    between atoms: C_24  and  O_26
REMARK   16  A    between atoms: C_24  and  C_27
REMARK   17  A    between atoms: C_27  and  O_29
REMARK   18  A    between atoms: C_27  and  C_30
REMARK   19  A    between atoms: C_30  and  O_32
REMARK   20  A    between atoms: C_30  and  C_33
REMARK                            x       y       z     vdW  Elec       q    Type
REMARK                         _______ _______ _______ _____ _____    ______ ____
ROOT
ATOM      1 MN   UNL     1       0.968   0.093  -0.017  0.00  0.00    +0.000 Mn
ENDROOT
TORSDOF 0
REMARK  Name = Manganese gluconate
REMARK  20 active torsions:
REMARK  status: ('A' for Active; 'I' for Inactive)
REMARK    1  A    between atoms: C_3  and  O_4
REMARK    2  A    between atoms: C_3  and  C_5
REMARK    3  A    between atoms: C_3  and  C_7
REMARK    4  A    between atoms: C_5  and  O_6
REMARK    5  A    between atoms: C_7  and  O_9
REMARK    6  A    between atoms: C_7  and  C_10
REMARK    7  A    between atoms: C_10  and  O_12
REMARK    8  A    between atoms: C_10  and  C_13
REMARK    9  A    between atoms: C_13  and  O_15
REMARK   10  A    between atoms: C_13  and  C_16
REMARK   11  A    between atoms: C_20  and  O_21
REMARK   12  A    between atoms: C_20  and  C_22
REMARK   13  A    between atoms: C_20  and  C_24
REMARK   14  A    between atoms: C_22  and  O_23
REMARK   15  A    between atoms: C_24  and  O_26
REMARK   16  A    between atoms: C_24  and  C_27
REMARK   17  A    between atoms: C_27  and  O_29
REMARK   18  A    between atoms: C_27  and  C_30
REMARK   19  A    between atoms: C_30  and  O_32
REMARK   20  A    between atoms: C_30  and  C_33
REMARK                            x       y       z     vdW  Elec       q    Type
REMARK                         _______ _______ _______ _____ _____    ______ ____
ROOT
ATOM      1  C   UNL     2       4.690   0.132   1.407  0.00  0.00    +0.000 C 
ENDROOT
BRANCH   1   2
ATOM      2  O   UNL     2       3.624  -0.128   2.308  0.00  0.00    +0.000 OA
ATOM      3  H   UNL     2       3.851  -0.886   2.868  0.00  0.00    +0.000 HD
ENDBRANCH   1   2
BRANCH   1   4
ATOM      4  C   UNL     2       5.972   0.361   2.192  0.00  0.00    +0.000 C 
BRANCH   4   5
ATOM      5  O   UNL     2       5.803   1.473   3.059  0.00  0.00    +0.000 OA
ATOM      6  H   UNL     2       6.621   1.619   3.559  0.00  0.00    +0.000 HD
ENDBRANCH   4   5
BRANCH   4   7
ATOM      7  C   UNL     2       7.113   0.639   1.227  0.00  0.00    +0.000 C 
BRANCH   7   8
ATOM      8  O   UNL     2       8.311   0.853   1.960  0.00  0.00    +0.000 OA
ATOM      9  H   UNL     2       8.195   1.612   2.553  0.00  0.00    +0.000 HD
ENDBRANCH   7   8
ENDBRANCH   4   7
ENDBRANCH   1   4
BRANCH   1  10
ATOM     10  C   UNL     2       4.184   1.326   0.615  0.00  0.00    +0.000 C 
BRANCH  10  11
ATOM     11  O   UNL     2       4.657   1.244  -0.721  0.00  0.00    +0.000 OA
ATOM     12  H   UNL     2       4.334   2.006  -1.226  0.00  0.00    +0.000 HD
ENDBRANCH  10  11
BRANCH  10  13
ATOM     13  C   UNL     2       4.690   2.609   1.254  0.00  0.00    +0.000 C 
BRANCH  13  14
ATOM     14  C   UNL     2       6.210   2.609   1.254  0.00  0.00    +0.000 C 
ATOM     15  O   UNL     2       6.920   1.508   0.706  0.00  0.00    +0.000 OA
ATOM     16  O   UNL     2       6.846   3.594   1.745  0.00  0.00    +0.000 OA
ENDBRANCH  13  14
BRANCH  13  17
ATOM     17  O   UNL     2       4.217   2.691   2.590  0.00  0.00    +0.000 OA
ATOM     18  H   UNL     2       3.247   2.691   2.590  0.00  0.00    +0.000 HD
ENDBRANCH  13  17
ENDBRANCH  10  13
ENDBRANCH   1  10
TORSDOF 10
REMARK  Name = Manganese gluconate
REMARK  20 active torsions:
REMARK  status: ('A' for Active; 'I' for Inactive)
REMARK    1  A    between atoms: C_3  and  O_4
REMARK    2  A    between atoms: C_3  and  C_5
REMARK    3  A    between atoms: C_3  and  C_7
REMARK    4  A    between atoms: C_5  and  O_6
REMARK    5  A    between atoms: C_7  and  O_9
REMARK    6  A    between atoms: C_7  and  C_10
REMARK    7  A    between atoms: C_10  and  O_12
REMARK    8  A    between atoms: C_10  and  C_13
REMARK    9  A    between atoms: C_13  and  O_15
REMARK   10  A    between atoms: C_13  and  C_16
REMARK   11  A    between atoms: C_20  and  O_21
REMARK   12  A    between atoms: C_20  and  C_22
REMARK   13  A    between atoms: C_20  and  C_24
REMARK   14  A    between atoms: C_22  and  O_23
REMARK   15  A    between atoms: C_24  and  O_26
REMARK   16  A    between atoms: C_24  and  C_27
REMARK   17  A    between atoms: C_27  and  O_29
REMARK   18  A    between atoms: C_27  and  C_30
REMARK   19  A    between atoms: C_30  and  O_32
REMARK   20  A    between atoms: C_30  and  C_33
REMARK                            x       y       z     vdW  Elec       q    Type
REMARK                         _______ _______ _______ _____ _____    ______ ____
ROOT
ATOM      1  C   UNL     3       4.693  -0.956   1.086  0.00  0.00    +0.000 C 
ENDROOT
BRANCH   1   2
ATOM      2  O   UNL     3       6.079  -1.099   1.358  0.00  0.00    +0.000 OA
ATOM      3  H   UNL     3       6.361  -2.001   1.139  0.00  0.00    +0.000 HD
ENDBRANCH   1   2
BRANCH   1   4
ATOM      4  C   UNL     3       4.434  -1.239  -0.385  0.00  0.00    +0.000 C 
BRANCH   4   5
ATOM      5  O   UNL     3       5.170  -0.321  -1.180  0.00  0.00    +0.000 OA
ATOM      6  H   UNL     3       5.005  -0.501  -2.119  0.00  0.00    +0.000 HD
ENDBRANCH   4   5
BRANCH   4   7
ATOM      7  C   UNL     3       2.950  -1.086  -0.677  0.00  0.00    +0.000 C 
BRANCH   7   8
ATOM      8  O   UNL     3       2.708  -1.350  -2.051  0.00  0.00    +0.000 OA
ATOM      9  H   UNL     3       3.211  -0.723  -2.594  0.00  0.00    +0.000 HD
ENDBRANCH   7   8
ENDBRANCH   4   7
ENDBRANCH   1   4
BRANCH   1  10
ATOM     10  C   UNL     3       4.187   0.440   1.409  0.00  0.00    +0.000 C 
BRANCH  10  11
ATOM     11  O   UNL     3       4.660   1.354   0.430  0.00  0.00    +0.000 OA
ATOM     12  H   UNL     3       4.337   2.245   0.636  0.00  0.00    +0.000 HD
ENDBRANCH  10  11
BRANCH  10  13
ATOM     13  C   UNL     3       4.693   0.859   2.779  0.00  0.00    +0.000 C 
BRANCH  13  14
ATOM     14  C   UNL     3       6.213   0.859   2.779  0.00  0.00    +0.000 C 
ATOM     15  O   UNL     3       6.923   0.500   1.603  0.00  0.00    +0.000 OA
ATOM     16  O   UNL     3       6.849   1.180   3.832  0.00  0.00    +0.000 OA
ENDBRANCH  13  14
BRANCH  13  17
ATOM     17  O   UNL     3       4.220  -0.055   3.758  0.00  0.00    +0.000 OA
ATOM     18  H   UNL     3       3.250  -0.055   3.758  0.00  0.00    +0.000 HD
ENDBRANCH  13  17
ENDBRANCH  10  13
ENDBRANCH   1  10
TORSDOF 10
