REMARK  Name = Mangafodipir
REMARK  25 active torsions:
REMARK  status: ('A' for Active; 'I' for Inactive)
REMARK    1  A    between atoms: C_2  and  C_3
REMARK    2  A    between atoms: C_4  and  O_5
REMARK    3  A    between atoms: C_6  and  C_7
REMARK    4  A    between atoms: C_7  and  N_8
REMARK    5  A    between atoms: N_8  and  C_9
REMARK    6  A    between atoms: N_8  and  C_31
REMARK    7  A    between atoms: C_9  and  C_10
REMARK    8  A    between atoms: C_10  and  N_11
REMARK    9  A    between atoms: N_11  and  C_12
REMARK   10  A    between atoms: N_11  and  C_16
REMARK   11  A    between atoms: C_12  and  C_13
REMARK   12  A    between atoms: C_16  and  C_17
REMARK   13  A    between atoms: C_19  and  C_20
REMARK   14  A    between atoms: C_20  and  O_21
REMARK   15  A    between atoms: O_21  and  P_22
REMARK   16  A    between atoms: P_22  and  O_23
REMARK   17  A    between atoms: P_22  and  O_24
REMARK   18  A    between atoms: C_27  and  C_28
REMARK   19  A    between atoms: C_29  and  O_30
REMARK   20  A    between atoms: C_31  and  C_32
REMARK   21  A    between atoms: C_36  and  C_37
REMARK   22  A    between atoms: C_37  and  O_38
REMARK   23  A    between atoms: O_38  and  P_39
REMARK   24  A    between atoms: P_39  and  O_40
REMARK   25  A    between atoms: P_39  and  O_41
REMARK                            x       y       z     vdW  Elec       q    Type
REMARK                         _______ _______ _______ _____ _____    ______ ____
ROOT
ATOM      1 MN   UNL     1       0.994  -0.095   0.030  0.00  0.00    +0.000 Mn
ENDROOT
TORSDOF 0
REMARK  Name = Mangafodipir
REMARK  25 active torsions:
REMARK  status: ('A' for Active; 'I' for Inactive)
REMARK    1  A    between atoms: C_2  and  C_3
REMARK    2  A    between atoms: C_4  and  O_5
REMARK    3  A    between atoms: C_6  and  C_7
REMARK    4  A    between atoms: C_7  and  N_8
REMARK    5  A    between atoms: N_8  and  C_9
REMARK    6  A    between atoms: N_8  and  C_31
REMARK    7  A    between atoms: C_9  and  C_10
REMARK    8  A    between atoms: C_10  and  N_11
REMARK    9  A    between atoms: N_11  and  C_12
REMARK   10  A    between atoms: N_11  and  C_16
REMARK   11  A    between atoms: C_12  and  C_13
REMARK   12  A    between atoms: C_16  and  C_17
REMARK   13  A    between atoms: C_19  and  C_20
REMARK   14  A    between atoms: C_20  and  O_21
REMARK   15  A    between atoms: O_21  and  P_22
REMARK   16  A    between atoms: P_22  and  O_23
REMARK   17  A    between atoms: P_22  and  O_24
REMARK   18  A    between atoms: C_27  and  C_28
REMARK   19  A    between atoms: C_29  and  O_30
REMARK   20  A    between atoms: C_31  and  C_32
REMARK   21  A    between atoms: C_36  and  C_37
REMARK   22  A    between atoms: C_37  and  O_38
REMARK   23  A    between atoms: O_38  and  P_39
REMARK   24  A    between atoms: P_39  and  O_40
REMARK   25  A    between atoms: P_39  and  O_41
REMARK                            x       y       z     vdW  Elec       q    Type
REMARK                         _______ _______ _______ _____ _____    ______ ____
ROOT
ATOM      1  C   UNL     2      -1.804   2.690   1.173  0.00  0.00    +0.000 C 
ENDROOT
BRANCH   1   2
ATOM      2  C   UNL     2      -1.601   1.184   1.173  0.00  0.00    +0.000 C 
BRANCH   2   3
ATOM      3  N   UNL     2      -2.240   0.603   2.363  0.00  0.00    +0.000 NA
BRANCH   3   4
ATOM      4  C   UNL     2      -2.043  -0.854   2.363  0.00  0.00    +0.000 C 
BRANCH   4   5
ATOM      5  C   UNL     2      -2.704  -1.454   3.593  0.00  0.00    +0.000 A 
ATOM      6  C   UNL     2      -2.552  -2.824   3.828  0.00  0.00    +0.000 A 
ATOM      7  C   UNL     2      -3.094  -3.339   5.013  0.00  0.00    +0.000 A 
ATOM      8  N   UNL     2      -3.698  -2.578   5.929  0.00  0.00    +0.000 NA
ATOM      9  C   UNL     2      -3.815  -1.262   5.720  0.00  0.00    +0.000 A 
ATOM     10  C   UNL     2      -4.488  -0.463   6.800  0.00  0.00    +0.000 C 
ATOM     11  C   UNL     2      -3.350  -0.667   4.547  0.00  0.00    +0.000 A 
BRANCH  11  12
ATOM     12  O   UNL     2      -3.476   0.682   4.327  0.00  0.00    +0.000 OA
ATOM     13  H   UNL     2      -3.907   1.222   4.959  0.00  0.00    +0.000 HD
ENDBRANCH  11  12
BRANCH   7  14
ATOM     14  C   UNL     2      -2.990  -4.834   5.268  0.00  0.00    +0.000 C 
BRANCH  14  15
ATOM     15  O   UNL     2      -2.318  -5.454   4.181  0.00  0.00    +0.000 OA
BRANCH  15  16
ATOM     16  P   UNL     2      -2.200  -7.155   4.471  0.00  0.00    +0.000 P 
ATOM     17  O   UNL     2      -2.094  -8.678   4.730  0.00  0.00    +0.000 OA
BRANCH  16  18
ATOM     18  O   UNL     2      -3.790  -7.376   3.826  0.00  0.00    +0.000 OA
ATOM     19  H   UNL     2      -4.150  -6.518   3.553  0.00  0.00    +0.000 HD
ENDBRANCH  16  18
BRANCH  16  20
ATOM     20  O   UNL     2      -1.986  -6.852   6.160  0.00  0.00    +0.000 OA
ATOM     21  H   UNL     2      -2.008  -5.896   6.323  0.00  0.00    +0.000 HD
ENDBRANCH  16  20
ENDBRANCH  15  16
ENDBRANCH  14  15
ENDBRANCH   7  14
ENDBRANCH   4   5
ENDBRANCH   3   4
BRANCH   3  22
ATOM     22  C   UNL     2      -3.679   0.904   2.342  0.00  0.00    +0.000 C 
BRANCH  22  23
ATOM     23  C   UNL     2      -3.882   2.410   2.342  0.00  0.00    +0.000 C 
ATOM     24  O   UNL     2      -2.758   3.278   2.361  0.00  0.00    +0.000 OA
ATOM     25  O   UNL     2      -5.057   2.893   2.326  0.00  0.00    +0.000 OA
ENDBRANCH  22  23
ENDBRANCH   3  22
ENDBRANCH   2   3
ENDBRANCH   1   2
BRANCH   1  26
ATOM     26  N   UNL     2      -1.165   3.271  -0.017  0.00  0.00    +0.000 NA
BRANCH  26  27
ATOM     27  C   UNL     2      -1.361   4.728  -0.017  0.00  0.00    +0.000 C 
BRANCH  27  28
ATOM     28  C   UNL     2      -2.849   5.038  -0.038  0.00  0.00    +0.000 C 
ATOM     29  O   UNL     2      -3.795   3.980  -0.054  0.00  0.00    +0.000 OA
ATOM     30  O   UNL     2      -3.246   6.246  -0.041  0.00  0.00    +0.000 OA
ENDBRANCH  27  28
ENDBRANCH  26  27
BRANCH  26  31
ATOM     31  C   UNL     2       0.274   2.970   0.004  0.00  0.00    +0.000 C 
BRANCH  31  35
ATOM     32  C   UNL     2      -1.548  -1.753   0.019  0.00  0.00    +0.000 C 
ATOM     33  C   UNL     2      -0.408  -0.775   0.003  0.00  0.00    +0.000 A 
ATOM     34  C   UNL     2      -0.621   0.604  -0.014  0.00  0.00    +0.000 A 
ATOM     35  C   UNL     2       0.477   1.464   0.004  0.00  0.00    +0.000 A 
ATOM     36  C   UNL     2       1.767   0.924   0.022  0.00  0.00    +0.000 A 
ATOM     37  C   UNL     2       1.882  -0.472  -0.011  0.00  0.00    +0.000 A 
ATOM     38  N   UNL     2       0.827  -1.290  -0.013  0.00  0.00    +0.000 NA
BRANCH  34  39
ATOM     39  O   UNL     2      -1.887   1.135  -0.006  0.00  0.00    +0.000 OA
ATOM     40  H   UNL     2      -2.633   0.568  -0.018  0.00  0.00    +0.000 HD
ENDBRANCH  34  39
BRANCH  37  41
ATOM     41  C   UNL     2       3.273  -1.084  -0.046  0.00  0.00    +0.000 C 
BRANCH  41  42
ATOM     42  O   UNL     2       4.245  -0.049  -0.038  0.00  0.00    +0.000 OA
BRANCH  42  43
ATOM     43  P   UNL     2       5.829  -0.745  -0.078  0.00  0.00    +0.000 P 
ATOM     44  O   UNL     2       7.246  -1.368  -0.114  0.00  0.00    +0.000 OA
BRANCH  43  45
ATOM     45  O   UNL     2       6.118  -0.180   1.531  0.00  0.00    +0.000 OA
ATOM     46  H   UNL     2       5.335   0.294   1.853  0.00  0.00    +0.000 HD
ENDBRANCH  43  45
BRANCH  43  47
ATOM     47  O   UNL     2       6.234   0.254  -1.431  0.00  0.00    +0.000 OA
ATOM     48  H   UNL     2       5.472   0.808  -1.663  0.00  0.00    +0.000 HD
ENDBRANCH  43  47
ENDBRANCH  42  43
ENDBRANCH  41  42
ENDBRANCH  37  41
ENDBRANCH  31  35
ENDBRANCH  26  31
ENDBRANCH   1  26
TORSDOF 23
