REMARK  Name = Manganese
REMARK  0 active torsions:
REMARK  status: ('A' for Active; 'I' for Inactive)
REMARK                            x       y       z     vdW  Elec       q    Type
REMARK                         _______ _______ _______ _____ _____    ______ ____
ROOT
ATOM      1 MN   UNL     1       1.085  -0.009  -0.052  0.00  0.00    +0.000 Mn
ENDROOT
TORSDOF 0
