REMARK  Name = Manganese citrate
REMARK  12 active torsions:
REMARK  status: ('A' for Active; 'I' for Inactive)
REMARK    1  A    between atoms: O_4  and  C_5
REMARK    2  A    between atoms: C_5  and  C_6
REMARK    3  A    between atoms: C_5  and  C_10
REMARK    4  A    between atoms: C_5  and  C_14
REMARK    5  A    between atoms: C_6  and  C_7
REMARK    6  A    between atoms: C_10  and  C_11
REMARK    7  A    between atoms: O_17  and  C_18
REMARK    8  A    between atoms: C_18  and  C_19
REMARK    9  A    between atoms: C_18  and  C_23
REMARK   10  A    between atoms: C_18  and  C_27
REMARK   11  A    between atoms: C_19  and  C_20
REMARK   12  A    between atoms: C_23  and  C_24
REMARK                            x       y       z     vdW  Elec       q    Type
REMARK                         _______ _______ _______ _____ _____    ______ ____
ROOT
ATOM      1 MN   UNL     1       0.903  -0.009   0.023  0.00  0.00    +0.000 Mn
ENDROOT
TORSDOF 0
REMARK  Name = Manganese citrate
REMARK  12 active torsions:
REMARK  status: ('A' for Active; 'I' for Inactive)
REMARK    1  A    between atoms: O_4  and  C_5
REMARK    2  A    between atoms: C_5  and  C_6
REMARK    3  A    between atoms: C_5  and  C_10
REMARK    4  A    between atoms: C_5  and  C_14
REMARK    5  A    between atoms: C_6  and  C_7
REMARK    6  A    between atoms: C_10  and  C_11
REMARK    7  A    between atoms: O_17  and  C_18
REMARK    8  A    between atoms: C_18  and  C_19
REMARK    9  A    between atoms: C_18  and  C_23
REMARK   10  A    between atoms: C_18  and  C_27
REMARK   11  A    between atoms: C_19  and  C_20
REMARK   12  A    between atoms: C_23  and  C_24
REMARK                            x       y       z     vdW  Elec       q    Type
REMARK                         _______ _______ _______ _____ _____    ______ ____
ROOT
ATOM      1 MN   UNL     2       1.057   0.008   0.082  0.00  0.00    +0.000 Mn
ENDROOT
TORSDOF 0
REMARK  Name = Manganese citrate
REMARK  12 active torsions:
REMARK  status: ('A' for Active; 'I' for Inactive)
REMARK    1  A    between atoms: O_4  and  C_5
REMARK    2  A    between atoms: C_5  and  C_6
REMARK    3  A    between atoms: C_5  and  C_10
REMARK    4  A    between atoms: C_5  and  C_14
REMARK    5  A    between atoms: C_6  and  C_7
REMARK    6  A    between atoms: C_10  and  C_11
REMARK    7  A    between atoms: O_17  and  C_18
REMARK    8  A    between atoms: C_18  and  C_19
REMARK    9  A    between atoms: C_18  and  C_23
REMARK   10  A    between atoms: C_18  and  C_27
REMARK   11  A    between atoms: C_19  and  C_20
REMARK   12  A    between atoms: C_23  and  C_24
REMARK                            x       y       z     vdW  Elec       q    Type
REMARK                         _______ _______ _______ _____ _____    ______ ____
ROOT
ATOM      1 MN   UNL     3       0.945  -0.062   0.055  0.00  0.00    +0.000 Mn
ENDROOT
TORSDOF 0
REMARK  Name = Manganese citrate
REMARK  12 active torsions:
REMARK  status: ('A' for Active; 'I' for Inactive)
REMARK    1  A    between atoms: O_4  and  C_5
REMARK    2  A    between atoms: C_5  and  C_6
REMARK    3  A    between atoms: C_5  and  C_10
REMARK    4  A    between atoms: C_5  and  C_14
REMARK    5  A    between atoms: C_6  and  C_7
REMARK    6  A    between atoms: C_10  and  C_11
REMARK    7  A    between atoms: O_17  and  C_18
REMARK    8  A    between atoms: C_18  and  C_19
REMARK    9  A    between atoms: C_18  and  C_23
REMARK   10  A    between atoms: C_18  and  C_27
REMARK   11  A    between atoms: C_19  and  C_20
REMARK   12  A    between atoms: C_23  and  C_24
REMARK                            x       y       z     vdW  Elec       q    Type
REMARK                         _______ _______ _______ _____ _____    ______ ____
ROOT
ATOM      1  C   UNL     4       2.386  -0.064   0.069  0.00  0.00    +0.000 C 
ENDROOT
BRANCH   1   2
ATOM      2  C   UNL     4       2.892   1.366  -0.023  0.00  0.00    +0.000 C 
ATOM      3  O   UNL     4       1.969   2.443  -0.092  0.00  0.00    +0.000 OA
ATOM      4  O   UNL     4       4.142   1.598  -0.038  0.00  0.00    +0.000 OA
ENDBRANCH   1   2
BRANCH   1   5
ATOM      5  O   UNL     4       0.966  -0.064   0.069  0.00  0.00    +0.000 OA
ATOM      6  H   UNL     4       0.642  -0.976   0.128  0.00  0.00    +0.000 HD
ENDBRANCH   1   5
BRANCH   1   7
ATOM      7  C   UNL     4       2.892  -0.699   1.353  0.00  0.00    +0.000 C 
BRANCH   7   8
ATOM      8  C   UNL     4       2.386   0.095   2.546  0.00  0.00    +0.000 C 
ATOM      9  O   UNL     4       1.569   1.239   2.342  0.00  0.00    +0.000 OA
ATOM     10  O   UNL     4       2.693  -0.264   3.726  0.00  0.00    +0.000 OA
ENDBRANCH   7   8
ENDBRANCH   1   7
BRANCH   1  11
ATOM     11  C   UNL     4       2.892  -0.858  -1.124  0.00  0.00    +0.000 C 
BRANCH  11  12
ATOM     12  C   UNL     4       2.386  -2.288  -1.032  0.00  0.00    +0.000 C 
ATOM     13  O   UNL     4       1.569  -2.684   0.061  0.00  0.00    +0.000 OA
ATOM     14  O   UNL     4       2.693  -3.131  -1.933  0.00  0.00    +0.000 OA
ENDBRANCH  11  12
ENDBRANCH   1  11
TORSDOF 6
REMARK  Name = Manganese citrate
REMARK  12 active torsions:
REMARK  status: ('A' for Active; 'I' for Inactive)
REMARK    1  A    between atoms: O_4  and  C_5
REMARK    2  A    between atoms: C_5  and  C_6
REMARK    3  A    between atoms: C_5  and  C_10
REMARK    4  A    between atoms: C_5  and  C_14
REMARK    5  A    between atoms: C_6  and  C_7
REMARK    6  A    between atoms: C_10  and  C_11
REMARK    7  A    between atoms: O_17  and  C_18
REMARK    8  A    between atoms: C_18  and  C_19
REMARK    9  A    between atoms: C_18  and  C_23
REMARK   10  A    between atoms: C_18  and  C_27
REMARK   11  A    between atoms: C_19  and  C_20
REMARK   12  A    between atoms: C_23  and  C_24
REMARK                            x       y       z     vdW  Elec       q    Type
REMARK                         _______ _______ _______ _____ _____    ______ ____
ROOT
ATOM      1  C   UNL     5       2.457  -0.053   0.076  0.00  0.00    +0.000 C 
ENDROOT
BRANCH   1   2
ATOM      2  C   UNL     5       2.964   0.368  -1.294  0.00  0.00    +0.000 C 
ATOM      3  O   UNL     5       2.041   0.686  -2.325  0.00  0.00    +0.000 OA
ATOM      4  O   UNL     5       4.214   0.437  -1.516  0.00  0.00    +0.000 OA
ENDBRANCH   1   2
BRANCH   1   5
ATOM      5  O   UNL     5       1.037  -0.053   0.076  0.00  0.00    +0.000 OA
ATOM      6  H   UNL     5       0.714  -0.322   0.950  0.00  0.00    +0.000 HD
ENDBRANCH   1   5
BRANCH   1   7
ATOM      7  C   UNL     5       2.964   0.923   1.126  0.00  0.00    +0.000 C 
BRANCH   7   8
ATOM      8  C   UNL     5       2.457   2.319   0.806  0.00  0.00    +0.000 C 
ATOM      9  O   UNL     5       1.641   2.534  -0.336  0.00  0.00    +0.000 OA
ATOM     10  O   UNL     5       2.764   3.295   1.560  0.00  0.00    +0.000 OA
ENDBRANCH   7   8
ENDBRANCH   1   7
BRANCH   1  11
ATOM     11  C   UNL     5       2.964  -1.450   0.396  0.00  0.00    +0.000 C 
BRANCH  11  12
ATOM     12  C   UNL     5       2.457  -1.871   1.766  0.00  0.00    +0.000 C 
ATOM     13  O   UNL     5       1.641  -0.990   2.523  0.00  0.00    +0.000 OA
ATOM     14  O   UNL     5       2.764  -3.012   2.234  0.00  0.00    +0.000 OA
ENDBRANCH  11  12
ENDBRANCH   1  11
TORSDOF 6
