REMARK  Name = Manidipine
REMARK  15 active torsions:
REMARK  status: ('A' for Active; 'I' for Inactive)
REMARK    1  A    between atoms: C_1  and  O_2
REMARK    2  A    between atoms: O_2  and  C_3
REMARK    3  A    between atoms: C_3  and  C_5
REMARK    4  A    between atoms: C_6  and  C_7
REMARK    5  A    between atoms: C_9  and  C_10
REMARK    6  A    between atoms: C_11  and  C_22
REMARK    7  A    between atoms: C_12  and  C_13
REMARK    8  A    between atoms: C_15  and  N_19
REMARK    9  A    between atoms: C_22  and  O_24
REMARK   10  A    between atoms: O_24  and  C_25
REMARK   11  A    between atoms: C_25  and  C_26
REMARK   12  A    between atoms: C_26  and  N_27
REMARK   13  A    between atoms: N_30  and  C_33
REMARK   14  A    between atoms: C_33  and  C_34
REMARK   15  A    between atoms: C_33  and  C_40
REMARK                            x       y       z     vdW  Elec       q    Type
REMARK                         _______ _______ _______ _____ _____    ______ ____
ROOT
ATOM      1  C   UNL     1       7.668  -3.078   2.188  0.00  0.00    +0.000 C 
ATOM      2  O   UNL     1       8.840  -2.978   2.538  0.00  0.00    +0.000 OA
ENDROOT
BRANCH   1   9
ATOM      3  C   UNL     1       4.645  -0.829   0.957  0.00  0.00    +0.000 C 
ATOM      4  C   UNL     1       5.326   0.334   0.836  0.00  0.00    +0.000 C 
ATOM      5  C   UNL     1       4.725   1.704   0.675  0.00  0.00    +0.000 C 
ATOM      6  N   UNL     1       6.711   0.315   0.899  0.00  0.00    +0.000 N 
ATOM      7  C   UNL     1       7.457  -0.731   1.424  0.00  0.00    +0.000 C 
ATOM      8  C   UNL     1       8.885  -0.386   1.775  0.00  0.00    +0.000 C 
ATOM      9  C   UNL     1       6.880  -1.951   1.594  0.00  0.00    +0.000 C 
ATOM     10  C   UNL     1       5.421  -2.152   1.123  0.00  0.00    +0.000 C 
ATOM     11  H   UNL     1       7.197   1.194   0.735  0.00  0.00    +0.000 HD
BRANCH  10  12
ATOM     12  C   UNL     1       5.432  -2.887  -0.226  0.00  0.00    +0.000 A 
ATOM     13  C   UNL     1       4.922  -4.184  -0.348  0.00  0.00    +0.000 A 
ATOM     14  C   UNL     1       5.128  -4.888  -1.544  0.00  0.00    +0.000 A 
ATOM     15  C   UNL     1       5.706  -4.270  -2.663  0.00  0.00    +0.000 A 
ATOM     16  C   UNL     1       6.167  -2.964  -2.560  0.00  0.00    +0.000 A 
ATOM     17  C   UNL     1       6.043  -2.289  -1.350  0.00  0.00    +0.000 A 
BRANCH  14  18
ATOM     18  N   UNL     1       4.876  -6.332  -1.583  0.00  0.00    +0.000 N 
ATOM     19  O   UNL     1       4.447  -6.871  -0.554  0.00  0.00    +0.000 OA
ATOM     20  O   UNL     1       5.162  -6.937  -2.627  0.00  0.00    +0.000 OA
ENDBRANCH  14  18
ENDBRANCH  10  12
BRANCH   3  21
ATOM     21  C   UNL     1       3.163  -0.920   0.982  0.00  0.00    +0.000 C 
ATOM     22  O   UNL     1       2.556  -1.615   1.796  0.00  0.00    +0.000 OA
BRANCH  21  24
ATOM     23  C   UNL     1       1.149  -0.136   0.027  0.00  0.00    +0.000 C 
ATOM     24  O   UNL     1       2.583  -0.184   0.000  0.00  0.00    +0.000 OA
ENDBRANCH  21  24
ENDBRANCH   3  21
ENDBRANCH   1   9
BRANCH   1  25
ATOM     25  O   UNL     1       6.955  -4.232   2.317  0.00  0.00    +0.000 OA
BRANCH  25  26
ATOM     26  C   UNL     1       7.732  -5.291   2.919  0.00  0.00    +0.000 C 
BRANCH  26  27
ATOM     27  C   UNL     1       6.908  -6.584   3.056  0.00  0.00    +0.000 C 
BRANCH  27  28
ATOM     28  N   UNL     1       7.807  -7.654   3.521  0.00  0.00    +0.000 NA
ATOM     29  C   UNL     1       7.190  -8.716   4.355  0.00  0.00    +0.000 C 
ATOM     30  C   UNL     1       6.310  -9.743   3.598  0.00  0.00    +0.000 C 
ATOM     31  N   UNL     1       6.993 -10.336   2.415  0.00  0.00    +0.000 NA
ATOM     32  C   UNL     1       7.399  -9.192   1.585  0.00  0.00    +0.000 C 
ATOM     33  C   UNL     1       8.410  -8.270   2.324  0.00  0.00    +0.000 C 
BRANCH  31  34
ATOM     34  C   UNL     1       8.153 -11.193   2.822  0.00  0.00    +0.000 C 
BRANCH  34  35
ATOM     35  C   UNL     1       7.659 -12.320   3.739  0.00  0.00    +0.000 A 
ATOM     36  C   UNL     1       8.282 -12.588   4.965  0.00  0.00    +0.000 A 
ATOM     37  C   UNL     1       8.066 -13.819   5.579  0.00  0.00    +0.000 A 
ATOM     38  C   UNL     1       7.176 -14.739   5.016  0.00  0.00    +0.000 A 
ATOM     39  C   UNL     1       6.480 -14.430   3.851  0.00  0.00    +0.000 A 
ATOM     40  C   UNL     1       6.685 -13.205   3.239  0.00  0.00    +0.000 A 
ENDBRANCH  34  35
BRANCH  34  41
ATOM     41  C   UNL     1       8.971 -11.764   1.625  0.00  0.00    +0.000 A 
ATOM     42  C   UNL     1       9.110 -13.144   1.408  0.00  0.00    +0.000 A 
ATOM     43  C   UNL     1       9.823 -13.656   0.331  0.00  0.00    +0.000 A 
ATOM     44  C   UNL     1      10.347 -12.798  -0.620  0.00  0.00    +0.000 A 
ATOM     45  C   UNL     1      10.263 -11.430  -0.428  0.00  0.00    +0.000 A 
ATOM     46  C   UNL     1       9.657 -10.933   0.722  0.00  0.00    +0.000 A 
ENDBRANCH  34  41
ENDBRANCH  31  34
ENDBRANCH  27  28
ENDBRANCH  26  27
ENDBRANCH  25  26
ENDBRANCH   1  25
TORSDOF 12
