REMARK  Name = Mannitol
REMARK  11 active torsions:
REMARK  status: ('A' for Active; 'I' for Inactive)
REMARK    1  A    between atoms: O_1  and  C_2
REMARK    2  A    between atoms: C_2  and  C_3
REMARK    3  A    between atoms: C_3  and  O_4
REMARK    4  A    between atoms: C_3  and  C_5
REMARK    5  A    between atoms: C_5  and  O_6
REMARK    6  A    between atoms: C_5  and  C_7
REMARK    7  A    between atoms: C_7  and  O_8
REMARK    8  A    between atoms: C_7  and  C_9
REMARK    9  A    between atoms: C_9  and  O_10
REMARK   10  A    between atoms: C_9  and  C_11
REMARK   11  A    between atoms: C_11  and  O_12
REMARK                            x       y       z     vdW  Elec       q    Type
REMARK                         _______ _______ _______ _____ _____    ______ ____
ROOT
ATOM      1  C   UNL     1       6.913   1.783  -3.661  0.00  0.00    +0.000 C 
ENDROOT
BRANCH   1   2
ATOM      2  O   UNL     1       7.417   0.641  -4.379  0.00  0.00    +0.000 OA
ATOM      3  H   UNL     1       6.966  -0.166  -4.075  0.00  0.00    +0.000 HD
ENDBRANCH   1   2
BRANCH   1   4
ATOM      4  C   UNL     1       5.505   2.137  -4.208  0.00  0.00    +0.000 C 
BRANCH   4   5
ATOM      5  O   UNL     1       5.019   3.422  -3.826  0.00  0.00    +0.000 OA
ATOM      6  H   UNL     1       4.900   3.522  -2.854  0.00  0.00    +0.000 HD
ENDBRANCH   4   5
BRANCH   4   7
ATOM      7  C   UNL     1       4.499   1.005  -3.923  0.00  0.00    +0.000 C 
BRANCH   7   8
ATOM      8  O   UNL     1       3.181   1.396  -4.265  0.00  0.00    +0.000 OA
ATOM      9  H   UNL     1       2.590   0.647  -4.068  0.00  0.00    +0.000 HD
ENDBRANCH   7   8
ENDBRANCH   4   7
ENDBRANCH   1   4
BRANCH   1  10
ATOM     10  C   UNL     1       6.984   1.532  -2.124  0.00  0.00    +0.000 C 
BRANCH  10  11
ATOM     11  O   UNL     1       8.346   1.239  -1.754  0.00  0.00    +0.000 OA
ATOM     12  H   UNL     1       8.864   2.052  -1.938  0.00  0.00    +0.000 HD
ENDBRANCH  10  11
BRANCH  10  13
ATOM     13  C   UNL     1       6.498   2.719  -1.252  0.00  0.00    +0.000 C 
BRANCH  13  14
ATOM     14  O   UNL     1       5.080   2.893  -1.176  0.00  0.00    +0.000 OA
ATOM     15  H   UNL     1       4.586   2.188  -1.626  0.00  0.00    +0.000 HD
ENDBRANCH  13  14
BRANCH  13  16
ATOM     16  C   UNL     1       7.126   4.051  -1.711  0.00  0.00    +0.000 C 
BRANCH  16  17
ATOM     17  O   UNL     1       8.544   3.975  -1.686  0.00  0.00    +0.000 OA
ATOM     18  H   UNL     1       8.809   4.029  -0.751  0.00  0.00    +0.000 HD
ENDBRANCH  16  17
ENDBRANCH  13  16
ENDBRANCH  10  13
ENDBRANCH   1  10
TORSDOF 11
