REMARK  Name = Mannitol busulfan
REMARK  15 active torsions:
REMARK  status: ('A' for Active; 'I' for Inactive)
REMARK    1  A    between atoms: C_1  and  S_2
REMARK    2  A    between atoms: S_2  and  O_5
REMARK    3  A    between atoms: O_5  and  C_6
REMARK    4  A    between atoms: C_6  and  C_7
REMARK    5  A    between atoms: C_7  and  O_8
REMARK    6  A    between atoms: C_7  and  C_9
REMARK    7  A    between atoms: C_9  and  O_10
REMARK    8  A    between atoms: C_9  and  C_11
REMARK    9  A    between atoms: C_11  and  O_12
REMARK   10  A    between atoms: C_11  and  C_13
REMARK   11  A    between atoms: C_13  and  O_14
REMARK   12  A    between atoms: C_13  and  C_15
REMARK   13  A    between atoms: C_15  and  O_16
REMARK   14  A    between atoms: O_16  and  S_17
REMARK   15  A    between atoms: S_17  and  C_18
REMARK                            x       y       z     vdW  Elec       q    Type
REMARK                         _______ _______ _______ _____ _____    ______ ____
ROOT
ATOM      1  C   UNL     1       9.011  -1.089   4.674  0.00  0.00    +0.000 C 
ENDROOT
BRANCH   1   2
ATOM      2  O   UNL     1       7.900  -1.656   5.379  0.00  0.00    +0.000 OA
ATOM      3  H   UNL     1       8.170  -2.418   5.910  0.00  0.00    +0.000 HD
ENDBRANCH   1   2
BRANCH   1   4
ATOM      4  C   UNL     1      10.288  -0.782   5.563  0.00  0.00    +0.000 C 
BRANCH   4   5
ATOM      5  O   UNL     1      11.300  -0.165   4.759  0.00  0.00    +0.000 OA
ATOM      6  H   UNL     1      11.426  -0.742   3.968  0.00  0.00    +0.000 HD
ENDBRANCH   4   5
BRANCH   4   7
ATOM      7  C   UNL     1      10.853  -2.046   6.210  0.00  0.00    +0.000 C 
BRANCH   7   8
ATOM      8  O   UNL     1      12.009  -1.963   7.093  0.00  0.00    +0.000 OA
BRANCH   8  10
ATOM      9  C   UNL     1      14.169  -3.422   8.154  0.00  0.00    +0.000 C 
ATOM     10  S   UNL     1      12.577  -3.462   7.461  0.00  0.00    +0.000 S 
ATOM     11  O   UNL     1      12.809  -4.091   6.174  0.00  0.00    +0.000 OA
ATOM     12  O   UNL     1      11.699  -4.033   8.453  0.00  0.00    +0.000 OA
ENDBRANCH   8  10
ENDBRANCH   7   8
ENDBRANCH   4   7
ENDBRANCH   1   4
BRANCH   1  13
ATOM     13  C   UNL     1       9.326  -1.866   3.342  0.00  0.00    +0.000 C 
BRANCH  13  14
ATOM     14  O   UNL     1      10.741  -2.042   3.190  0.00  0.00    +0.000 OA
ATOM     15  H   UNL     1      10.959  -2.947   3.503  0.00  0.00    +0.000 HD
ENDBRANCH  13  14
BRANCH  13  16
ATOM     16  C   UNL     1       8.667  -3.239   3.046  0.00  0.00    +0.000 C 
BRANCH  16  17
ATOM     17  O   UNL     1       7.246  -3.181   3.037  0.00  0.00    +0.000 OA
ATOM     18  H   UNL     1       6.942  -2.848   3.903  0.00  0.00    +0.000 HD
ENDBRANCH  16  17
BRANCH  16  19
ATOM     19  C   UNL     1       9.112  -4.396   3.962  0.00  0.00    +0.000 C 
BRANCH  19  20
ATOM     20  O   UNL     1      10.517  -4.627   3.999  0.00  0.00    +0.000 OA
BRANCH  20  21
ATOM     21  S   UNL     1      11.039  -5.967   4.816  0.00  0.00    +0.000 S 
ATOM     22  C   UNL     1      10.428  -5.497   6.442  0.00  0.00    +0.000 C 
ATOM     23  O   UNL     1      10.259  -7.109   4.406  0.00  0.00    +0.000 OA
ATOM     24  O   UNL     1      12.482  -6.019   4.727  0.00  0.00    +0.000 OA
ENDBRANCH  20  21
ENDBRANCH  19  20
ENDBRANCH  16  19
ENDBRANCH  13  16
ENDBRANCH   1  13
TORSDOF 13
