REMARK  Name = Maprotiline
REMARK  5 active torsions:
REMARK  status: ('A' for Active; 'I' for Inactive)
REMARK    1  A    between atoms: C_1  and  N_2
REMARK    2  A    between atoms: N_2  and  C_3
REMARK    3  A    between atoms: C_3  and  C_4
REMARK    4  A    between atoms: C_4  and  C_5
REMARK    5  A    between atoms: C_5  and  C_6
REMARK                            x       y       z     vdW  Elec       q    Type
REMARK                         _______ _______ _______ _____ _____    ______ ____
ROOT
ATOM      1  C   UNL     1       6.581  -0.995  -2.693  0.00  0.00    +0.000 C 
ATOM      2  C   UNL     1       7.216   0.369  -2.239  0.00  0.00    +0.000 C 
ATOM      3  C   UNL     1       8.767   0.310  -2.270  0.00  0.00    +0.000 C 
ATOM      4  C   UNL     1       9.233  -1.086  -2.740  0.00  0.00    +0.000 C 
ATOM      5  C   UNL     1       8.592  -1.293  -4.111  0.00  0.00    +0.000 A 
ATOM      6  C   UNL     1       9.288  -1.525  -5.291  0.00  0.00    +0.000 A 
ATOM      7  C   UNL     1       8.564  -1.717  -6.468  0.00  0.00    +0.000 A 
ATOM      8  C   UNL     1       7.165  -1.678  -6.463  0.00  0.00    +0.000 A 
ATOM      9  C   UNL     1       6.461  -1.449  -5.279  0.00  0.00    +0.000 A 
ATOM     10  C   UNL     1       7.171  -1.250  -4.098  0.00  0.00    +0.000 A 
ATOM     11  C   UNL     1       8.605  -2.094  -1.781  0.00  0.00    +0.000 A 
ATOM     12  C   UNL     1       9.308  -3.006  -1.001  0.00  0.00    +0.000 A 
ATOM     13  C   UNL     1       8.593  -3.895  -0.194  0.00  0.00    +0.000 A 
ATOM     14  C   UNL     1       7.197  -3.888  -0.184  0.00  0.00    +0.000 A 
ATOM     15  C   UNL     1       6.490  -2.993  -0.985  0.00  0.00    +0.000 A 
ATOM     16  C   UNL     1       7.187  -2.070  -1.764  0.00  0.00    +0.000 A 
ENDROOT
BRANCH   1  17
ATOM     17  C   UNL     1       5.043  -0.933  -2.669  0.00  0.00    +0.000 C 
BRANCH  17  18
ATOM     18  C   UNL     1       4.474  -0.409  -1.348  0.00  0.00    +0.000 C 
BRANCH  18  19
ATOM     19  C   UNL     1       2.958  -0.467  -1.360  0.00  0.00    +0.000 C 
BRANCH  19  21
ATOM     20  C   UNL     1       1.026   0.019  -0.048  0.00  0.00    +0.000 C 
ATOM     21  N   UNL     1       2.478   0.022  -0.072  0.00  0.00    +0.000 NA
ATOM     22  H   UNL     1       2.839  -0.570   0.676  0.00  0.00    +0.000 HD
ENDBRANCH  19  21
ENDBRANCH  18  19
ENDBRANCH  17  18
ENDBRANCH   1  17
TORSDOF 4
