REMARK  Name = Maraviroc
REMARK  11 active torsions:
REMARK  status: ('A' for Active; 'I' for Inactive)
REMARK    1  A    between atoms: C_1  and  C_2
REMARK    2  A    between atoms: C_2  and  C_3
REMARK    3  A    between atoms: C_2  and  C_4
REMARK    4  A    between atoms: C_7  and  C_8
REMARK    5  A    between atoms: N_9  and  C_10
REMARK    6  A    between atoms: N_17  and  C_18
REMARK    7  A    between atoms: C_18  and  C_19
REMARK    8  A    between atoms: C_19  and  C_20
REMARK    9  A    between atoms: C_20  and  N_21
REMARK   10  A    between atoms: C_20  and  C_32
REMARK   11  A    between atoms: C_22  and  C_24
REMARK                            x       y       z     vdW  Elec       q    Type
REMARK                         _______ _______ _______ _____ _____    ______ ____
ROOT
ATOM      1  C   UNL     1      -1.733  -0.847   5.304  0.00  0.00    +0.000 C 
ENDROOT
BRANCH   1   2
ATOM      2  C   UNL     1      -2.281  -1.920   6.216  0.00  0.00    +0.000 C 
BRANCH   2  10
ATOM      3  C   UNL     1      -0.296  -4.357   7.346  0.00  0.00    +0.000 C 
ATOM      4  C   UNL     1       0.294  -3.060   6.838  0.00  0.00    +0.000 C 
ATOM      5  C   UNL     1      -0.254  -1.883   7.673  0.00  0.00    +0.000 C 
ATOM      6  C   UNL     1      -0.040  -2.118   9.194  0.00  0.00    +0.000 C 
ATOM      7  C   UNL     1      -1.329  -2.751   9.710  0.00  0.00    +0.000 C 
ATOM      8  C   UNL     1      -2.146  -2.874   8.447  0.00  0.00    +0.000 C 
ATOM      9  C   UNL     1      -1.693  -4.112   7.757  0.00  0.00    +0.000 C 
ATOM     10  N   UNL     1      -1.722  -1.784   7.580  0.00  0.00    +0.000 NA
BRANCH   3  16
ATOM     11  C   UNL     1      -1.243  -6.618   6.611  0.00  0.00    +0.000 A 
ATOM     12  N   UNL     1      -0.636  -7.673   6.081  0.00  0.00    +0.000 NA
ATOM     13  N   UNL     1       0.660  -7.330   5.702  0.00  0.00    +0.000 NA
ATOM     14  C   UNL     1       0.848  -6.060   5.972  0.00  0.00    +0.000 A 
ATOM     15  C   UNL     1       2.068  -5.218   5.802  0.00  0.00    +0.000 C 
ATOM     16  N   UNL     1      -0.300  -5.572   6.553  0.00  0.00    +0.000 N 
BRANCH  11  18
ATOM     17  C   UNL     1      -3.147  -6.278   8.630  0.00  0.00    +0.000 C 
ATOM     18  C   UNL     1      -2.773  -6.586   7.094  0.00  0.00    +0.000 C 
ATOM     19  C   UNL     1      -3.684  -5.871   6.043  0.00  0.00    +0.000 C 
ENDBRANCH  11  18
ENDBRANCH   3  16
ENDBRANCH   2  10
ENDBRANCH   1   2
BRANCH   1  20
ATOM     20  C   UNL     1      -2.223  -1.048   3.870  0.00  0.00    +0.000 C 
BRANCH  20  21
ATOM     21  C   UNL     1      -3.676  -0.614   3.845  0.00  0.00    +0.000 A 
ATOM     22  C   UNL     1      -3.977   0.757   3.872  0.00  0.00    +0.000 A 
ATOM     23  C   UNL     1      -5.290   1.192   3.917  0.00  0.00    +0.000 A 
ATOM     24  C   UNL     1      -6.321   0.258   3.897  0.00  0.00    +0.000 A 
ATOM     25  C   UNL     1      -6.040  -1.109   3.865  0.00  0.00    +0.000 A 
ATOM     26  C   UNL     1      -4.719  -1.550   3.839  0.00  0.00    +0.000 A 
ENDBRANCH  20  21
BRANCH  20  27
ATOM     27  N   UNL     1      -1.350  -0.271   2.986  0.00  0.00    +0.000 N 
ATOM     28  C   UNL     1      -1.753   0.018   1.702  0.00  0.00    +0.000 C 
ATOM     29  O   UNL     1      -2.842  -0.287   1.283  0.00  0.00    +0.000 OA
ATOM     30  H   UNL     1      -0.360  -0.275   3.185  0.00  0.00    +0.000 HD
BRANCH  28  31
ATOM     31  C   UNL     1      -0.766   0.838   0.867  0.00  0.00    +0.000 C 
ATOM     32  C   UNL     1      -1.126   0.654  -0.619  0.00  0.00    +0.000 C 
ATOM     33  C   UNL     1      -2.462   1.311  -0.996  0.00  0.00    +0.000 C 
ATOM     34  C   UNL     1      -2.478   2.771  -0.596  0.00  0.00    +0.000 C 
ATOM     35  F   UNL     1      -3.694   3.306  -0.861  0.00  0.00    +0.000 F 
ATOM     36  F   UNL     1      -1.583   3.443  -1.368  0.00  0.00    +0.000 F 
ATOM     37  C   UNL     1      -2.129   2.989   0.871  0.00  0.00    +0.000 C 
ATOM     38  C   UNL     1      -0.793   2.331   1.233  0.00  0.00    +0.000 C 
ENDBRANCH  28  31
ENDBRANCH  20  27
ENDBRANCH   1  20
TORSDOF 8
