REMARK  Name = Maralixibat
REMARK  18 active torsions:
REMARK  status: ('A' for Active; 'I' for Inactive)
REMARK    1  A    between atoms: C_1  and  C_2
REMARK    2  A    between atoms: C_2  and  C_3
REMARK    3  A    between atoms: C_3  and  C_4
REMARK    4  A    between atoms: C_4  and  C_5
REMARK    5  A    between atoms: C_5  and  C_6
REMARK    6  A    between atoms: C_6  and  C_7
REMARK    7  A    between atoms: C_7  and  C_8
REMARK    8  A    between atoms: C_8  and  C_9
REMARK    9  A    between atoms: C_17  and  N_46
REMARK   10  A    between atoms: C_20  and  C_23
REMARK   11  A    between atoms: C_21  and  O_22
REMARK   12  A    between atoms: C_26  and  O_27
REMARK   13  A    between atoms: O_27  and  C_28
REMARK   14  A    between atoms: C_28  and  C_29
REMARK   15  A    between atoms: C_32  and  C_33
REMARK   16  A    between atoms: C_33  and  N_34
REMARK   17  A    between atoms: N_46  and  C_47
REMARK   18  A    between atoms: N_46  and  C_48
REMARK                            x       y       z     vdW  Elec       q    Type
REMARK                         _______ _______ _______ _____ _____    ______ ____
ROOT
ATOM      1  C   UNL     1       5.046  -2.080   2.230  0.00  0.00    +0.000 C 
ATOM      2  C   UNL     1       3.975  -3.189   2.199  0.00  0.00    +0.000 C 
ATOM      3  S   UNL     1       3.743  -4.278   3.518  0.00  0.00    +0.000 S 
ATOM      4  O   UNL     1       2.571  -5.050   3.172  0.00  0.00    +0.000 OA
ATOM      5  O   UNL     1       3.666  -3.582   4.799  0.00  0.00    +0.000 OA
ATOM      6  C   UNL     1       5.212  -5.289   3.254  0.00  0.00    +0.000 A 
ATOM      7  C   UNL     1       4.778  -6.581   3.019  0.00  0.00    +0.000 A 
ATOM      8  C   UNL     1       5.629  -7.564   2.578  0.00  0.00    +0.000 A 
ATOM      9  C   UNL     1       6.986  -7.353   2.399  0.00  0.00    +0.000 A 
ATOM     10  C   UNL     1       7.417  -6.038   2.588  0.00  0.00    +0.000 A 
ATOM     11  C   UNL     1       6.570  -4.962   2.921  0.00  0.00    +0.000 A 
ATOM     12  C   UNL     1       7.248  -3.575   2.886  0.00  0.00    +0.000 C 
ATOM     13  C   UNL     1       6.524  -2.580   1.897  0.00  0.00    +0.000 C 
ENDROOT
BRANCH  12  14
ATOM     14  C   UNL     1       8.795  -3.346   2.962  0.00  0.00    +0.000 A 
ATOM     15  C   UNL     1       9.621  -3.718   1.912  0.00  0.00    +0.000 A 
ATOM     16  C   UNL     1      10.990  -3.866   2.135  0.00  0.00    +0.000 A 
ATOM     17  C   UNL     1      11.583  -3.428   3.320  0.00  0.00    +0.000 A 
ATOM     18  C   UNL     1      10.803  -2.815   4.292  0.00  0.00    +0.000 A 
ATOM     19  C   UNL     1       9.416  -2.827   4.139  0.00  0.00    +0.000 A 
BRANCH  17  20
ATOM     20  O   UNL     1      12.924  -3.659   3.415  0.00  0.00    +0.000 OA
BRANCH  20  21
ATOM     21  C   UNL     1      13.516  -3.187   4.612  0.00  0.00    +0.000 C 
BRANCH  21  22
ATOM     22  C   UNL     1      14.957  -3.558   4.566  0.00  0.00    +0.000 A 
ATOM     23  C   UNL     1      15.877  -2.970   3.682  0.00  0.00    +0.000 A 
ATOM     24  C   UNL     1      17.187  -3.440   3.597  0.00  0.00    +0.000 A 
ATOM     25  C   UNL     1      17.611  -4.419   4.487  0.00  0.00    +0.000 A 
ATOM     26  C   UNL     1      16.686  -4.867   5.453  0.00  0.00    +0.000 A 
ATOM     27  C   UNL     1      15.366  -4.530   5.446  0.00  0.00    +0.000 A 
BRANCH  25  28
ATOM     28  C   UNL     1      19.003  -4.992   4.358  0.00  0.00    +0.000 C 
BRANCH  28  29
ATOM     29  N   UNL     1      19.322  -6.041   5.392  0.00  0.00    +0.000 N 
ATOM     30  C   UNL     1      18.379  -7.288   5.233  0.00  0.00    +0.000 C 
ATOM     31  C   UNL     1      18.624  -8.252   6.399  0.00  0.00    +0.000 C 
ATOM     32  N   UNL     1      19.775  -7.855   7.252  0.00  0.00    +0.000 NA
ATOM     33  C   UNL     1      19.485  -6.527   7.860  0.00  0.00    +0.000 C 
ATOM     34  C   UNL     1      19.331  -5.408   6.822  0.00  0.00    +0.000 C 
ATOM     35  C   UNL     1      20.954  -7.687   6.353  0.00  0.00    +0.000 C 
ATOM     36  C   UNL     1      20.745  -6.628   5.227  0.00  0.00    +0.000 C 
ENDBRANCH  28  29
ENDBRANCH  25  28
ENDBRANCH  21  22
ENDBRANCH  20  21
ENDBRANCH  17  20
ENDBRANCH  12  14
BRANCH   9  37
ATOM     37  N   UNL     1       7.834  -8.372   2.024  0.00  0.00    +0.000 N 
ATOM     38  C   UNL     1       7.351  -9.738   1.835  0.00  0.00    +0.000 C 
ATOM     39  C   UNL     1       9.271  -8.195   1.859  0.00  0.00    +0.000 C 
ENDBRANCH   9  37
BRANCH  13  40
ATOM     40  O   UNL     1       6.527  -3.174   0.583  0.00  0.00    +0.000 OA
ATOM     41  H   UNL     1       6.111  -4.052   0.633  0.00  0.00    +0.000 HD
ENDBRANCH  13  40
BRANCH   1  42
ATOM     42  C   UNL     1       4.568  -1.062   1.093  0.00  0.00    +0.000 C 
BRANCH  42  43
ATOM     43  C   UNL     1       3.034  -0.951   0.990  0.00  0.00    +0.000 C 
BRANCH  43  45
ATOM     44  C   UNL     1       0.987  -0.049  -0.029  0.00  0.00    +0.000 C 
ATOM     45  C   UNL     1       2.511   0.004  -0.051  0.00  0.00    +0.000 C 
ENDBRANCH  43  45
ENDBRANCH  42  43
ENDBRANCH   1  42
BRANCH   1  46
ATOM     46  C   UNL     1       5.054  -1.314   3.594  0.00  0.00    +0.000 C 
BRANCH  46  47
ATOM     47  C   UNL     1       5.758  -2.073   4.701  0.00  0.00    +0.000 C 
BRANCH  47  48
ATOM     48  C   UNL     1       5.693  -1.701   6.141  0.00  0.00    +0.000 C 
ATOM     49  C   UNL     1       6.212  -2.892   6.963  0.00  0.00    +0.000 C 
ENDBRANCH  47  48
ENDBRANCH  46  47
ENDBRANCH   1  46
TORSDOF 14
