REMARK  Name = Maribavir
REMARK  8 active torsions:
REMARK  status: ('A' for Active; 'I' for Inactive)
REMARK    1  A    between atoms: C_1  and  C_2
REMARK    2  A    between atoms: C_2  and  C_3
REMARK    3  A    between atoms: C_2  and  N_4
REMARK    4  A    between atoms: N_15  and  C1*_16
REMARK    5  A    between atoms: C4*_18  and  C5*_19
REMARK    6  A    between atoms: C5*_19  and  O5*_20
REMARK    7  A    between atoms: C3*_21  and  O3*_22
REMARK    8  A    between atoms: C2*_23  and  O2*_24
REMARK                            x       y       z     vdW  Elec       q    Type
REMARK                         _______ _______ _______ _____ _____    ______ ____
ROOT
ATOM      1  N   UNL     1       2.978  -0.459   1.315  0.00  0.00    +0.000 N 
ATOM      2  C   UNL     1       4.319  -0.736   1.437  0.00  0.00    +0.000 A 
ATOM      3  N   UNL     1       4.845  -1.855   1.938  0.00  0.00    +0.000 NA
ATOM      4  C   UNL     1       6.217  -1.676   2.027  0.00  0.00    +0.000 A 
ATOM      5  C   UNL     1       7.301  -2.475   2.487  0.00  0.00    +0.000 A 
ATOM      6  C   UNL     1       8.630  -1.972   2.492  0.00  0.00    +0.000 A 
ATOM      7 CL   UNL     1       9.930  -2.954   3.061  0.00  0.00    +0.000 Cl
ATOM      8  C   UNL     1       8.896  -0.704   2.010  0.00  0.00    +0.000 A 
ATOM      9 CL   UNL     1      10.445   0.066   1.996  0.00  0.00    +0.000 Cl
ATOM     10  C   UNL     1       7.844   0.019   1.499  0.00  0.00    +0.000 A 
ATOM     11  C   UNL     1       6.536  -0.412   1.540  0.00  0.00    +0.000 A 
ATOM     12  N   UNL     1       5.330   0.193   1.241  0.00  0.00    +0.000 N 
ATOM     13  H   UNL     1       2.424  -1.185   1.779  0.00  0.00    +0.000 HD
ENDROOT
BRANCH  12  14
ATOM     14  C1* UNL     1       5.189   1.629   1.012  0.00  0.00    +0.000 C 
ATOM     15  O4* UNL     1       5.873   2.345   2.044  0.00  0.00    +0.000 OA
ATOM     16  C4* UNL     1       6.837   3.222   1.455  0.00  0.00    +0.000 C 
ATOM     17  C3* UNL     1       7.049   2.798  -0.009  0.00  0.00    +0.000 C 
ATOM     18  C2* UNL     1       5.707   2.175  -0.354  0.00  0.00    +0.000 C 
BRANCH  17  19
ATOM     19  O3* UNL     1       7.444   3.887  -0.830  0.00  0.00    +0.000 OA
ATOM     20  H3* UNL     1       6.653   4.409  -1.046  0.00  0.00    +0.000 HD
ENDBRANCH  17  19
BRANCH  18  21
ATOM     21  O2* UNL     1       4.887   3.217  -0.927  0.00  0.00    +0.000 OA
ATOM     22  H2* UNL     1       4.678   3.876  -0.245  0.00  0.00    +0.000 HD
ENDBRANCH  18  21
BRANCH  16  23
ATOM     23  C5* UNL     1       8.050   3.199   2.384  0.00  0.00    +0.000 C 
BRANCH  23  24
ATOM     24  O5* UNL     1       7.712   3.638   3.701  0.00  0.00    +0.000 OA
ATOM     25  H5* UNL     1       7.195   4.454   3.636  0.00  0.00    +0.000 HD
ENDBRANCH  23  24
ENDBRANCH  16  23
ENDBRANCH  12  14
BRANCH   1  27
ATOM     26  C   UNL     1       0.816  -0.164   0.095  0.00  0.00    +0.000 C 
ATOM     27  C   UNL     1       2.339  -0.101   0.020  0.00  0.00    +0.000 C 
ATOM     28  C   UNL     1       2.600   1.336  -0.373  0.00  0.00    +0.000 C 
ENDBRANCH   1  27
TORSDOF 6
