REMARK  Name = Masoprocol
REMARK  11 active torsions:
REMARK  status: ('A' for Active; 'I' for Inactive)
REMARK    1  A    between atoms: C_1  and  C_2
REMARK    2  A    between atoms: C_2  and  C_3
REMARK    3  A    between atoms: C_2  and  C_12
REMARK    4  A    between atoms: C_3  and  C_4
REMARK    5  A    between atoms: C_6  and  O_7
REMARK    6  A    between atoms: C_8  and  O_9
REMARK    7  A    between atoms: C_12  and  C_13
REMARK    8  A    between atoms: C_12  and  C_14
REMARK    9  A    between atoms: C_14  and  C_15
REMARK   10  A    between atoms: C_17  and  O_18
REMARK   11  A    between atoms: C_19  and  O_20
REMARK                            x       y       z     vdW  Elec       q    Type
REMARK                         _______ _______ _______ _____ _____    ______ ____
ROOT
ATOM      1  C   UNL     1       3.431  -1.922  -2.559  0.00  0.00    +0.000 C 
ATOM      2  C   UNL     1       2.397  -1.934  -1.416  0.00  0.00    +0.000 C 
ENDROOT
BRANCH   2   3
ATOM      3  C   UNL     1       2.977  -1.410  -0.039  0.00  0.00    +0.000 C 
ATOM      4  C   UNL     1       2.629   0.026   0.307  0.00  0.00    +0.000 C 
BRANCH   3   5
ATOM      5  C   UNL     1       4.508  -1.554   0.090  0.00  0.00    +0.000 C 
BRANCH   5   6
ATOM      6  C   UNL     1       5.011  -2.976   0.019  0.00  0.00    +0.000 A 
ATOM      7  C   UNL     1       4.162  -4.078   0.228  0.00  0.00    +0.000 A 
ATOM      8  C   UNL     1       4.634  -5.366   0.028  0.00  0.00    +0.000 A 
ATOM      9  C   UNL     1       5.958  -5.571  -0.312  0.00  0.00    +0.000 A 
ATOM     10  C   UNL     1       6.828  -4.502  -0.486  0.00  0.00    +0.000 A 
ATOM     11  C   UNL     1       6.348  -3.199  -0.329  0.00  0.00    +0.000 A 
BRANCH   8  12
ATOM     12  O   UNL     1       3.801  -6.446   0.146  0.00  0.00    +0.000 OA
ATOM     13  H   UNL     1       2.905  -6.118   0.332  0.00  0.00    +0.000 HD
ENDBRANCH   8  12
BRANCH   9  14
ATOM     14  O   UNL     1       6.425  -6.843  -0.484  0.00  0.00    +0.000 OA
ATOM     15  H   UNL     1       5.648  -7.409  -0.308  0.00  0.00    +0.000 HD
ENDBRANCH   9  14
ENDBRANCH   5   6
ENDBRANCH   3   5
ENDBRANCH   2   3
BRANCH   2  16
ATOM     16  C   UNL     1       1.021  -1.332  -1.859  0.00  0.00    +0.000 C 
BRANCH  16  17
ATOM     17  C   UNL     1       1.033   0.148  -2.206  0.00  0.00    +0.000 A 
ATOM     18  C   UNL     1       0.389   1.090  -1.379  0.00  0.00    +0.000 A 
ATOM     19  C   UNL     1       0.721   2.441  -1.490  0.00  0.00    +0.000 A 
ATOM     20  C   UNL     1       1.608   2.869  -2.471  0.00  0.00    +0.000 A 
ATOM     21  C   UNL     1       2.166   1.968  -3.359  0.00  0.00    +0.000 A 
ATOM     22  C   UNL     1       1.846   0.617  -3.248  0.00  0.00    +0.000 A 
BRANCH  19  23
ATOM     23  O   UNL     1       0.262   3.372  -0.596  0.00  0.00    +0.000 OA
ATOM     24  H   UNL     1      -0.237   2.908   0.098  0.00  0.00    +0.000 HD
ENDBRANCH  19  23
BRANCH  20  25
ATOM     25  O   UNL     1       1.960   4.184  -2.568  0.00  0.00    +0.000 OA
ATOM     26  H   UNL     1       1.433   4.633  -1.879  0.00  0.00    +0.000 HD
ENDBRANCH  20  25
ENDBRANCH  16  17
ENDBRANCH   2  16
TORSDOF 9
