REMARK  Name = Mavacamten
REMARK  7 active torsions:
REMARK  status: ('A' for Active; 'I' for Inactive)
REMARK    1  A    between atoms: C_1  and  C_2
REMARK    2  A    between atoms: C_2  and  C_3
REMARK    3  A    between atoms: C_2  and  N_4
REMARK    4  A    between atoms: C_8  and  N_9
REMARK    5  A    between atoms: N_9  and  C_10
REMARK    6  A    between atoms: C_10  and  C_11
REMARK    7  A    between atoms: C_10  and  C_12
REMARK                            x       y       z     vdW  Elec       q    Type
REMARK                         _______ _______ _______ _____ _____    ______ ____
ROOT
ATOM      1  N   UNL     1       3.054  -0.626  -1.120  0.00  0.00    +0.000 N 
ATOM      2  C   UNL     1       3.539   0.191  -2.134  0.00  0.00    +0.000 A 
ATOM      3  O   UNL     1       3.690   1.407  -2.043  0.00  0.00    +0.000 OA
ATOM      4  N   UNL     1       3.850  -0.439  -3.314  0.00  0.00    +0.000 N 
ATOM      5  C   UNL     1       3.757  -1.776  -3.533  0.00  0.00    +0.000 A 
ATOM      6  C   UNL     1       3.349  -2.548  -2.524  0.00  0.00    +0.000 A 
ATOM      7  C   UNL     1       2.866  -1.977  -1.291  0.00  0.00    +0.000 A 
ATOM      8  O   UNL     1       2.307  -2.757  -0.515  0.00  0.00    +0.000 OA
ATOM      9  H   UNL     1       4.191   0.169  -4.048  0.00  0.00    +0.000 HD
ENDROOT
BRANCH   1  11
ATOM     10  C   UNL     1       1.027   0.011   0.110  0.00  0.00    +0.000 C 
ATOM     11  C   UNL     1       2.557  -0.024   0.116  0.00  0.00    +0.000 C 
ATOM     12  C   UNL     1       3.088  -0.751   1.358  0.00  0.00    +0.000 C 
ENDBRANCH   1  11
BRANCH   5  13
ATOM     13  N   UNL     1       4.063  -2.311  -4.752  0.00  0.00    +0.000 N 
ATOM     14  H   UNL     1       4.363  -1.641  -5.441  0.00  0.00    +0.000 HD
BRANCH  13  15
ATOM     15  C   UNL     1       3.889  -3.709  -5.151  0.00  0.00    +0.000 C 
ATOM     16  C   UNL     1       2.401  -4.122  -5.049  0.00  0.00    +0.000 C 
BRANCH  15  17
ATOM     17  C   UNL     1       4.362  -3.994  -6.567  0.00  0.00    +0.000 A 
ATOM     18  C   UNL     1       4.673  -2.992  -7.495  0.00  0.00    +0.000 A 
ATOM     19  C   UNL     1       4.805  -3.292  -8.846  0.00  0.00    +0.000 A 
ATOM     20  C   UNL     1       4.769  -4.613  -9.272  0.00  0.00    +0.000 A 
ATOM     21  C   UNL     1       4.629  -5.638  -8.342  0.00  0.00    +0.000 A 
ATOM     22  C   UNL     1       4.384  -5.331  -7.006  0.00  0.00    +0.000 A 
ENDBRANCH  15  17
ENDBRANCH  13  15
ENDBRANCH   5  13
TORSDOF 4
