REMARK  Name = Mazindol
REMARK  2 active torsions:
REMARK  status: ('A' for Active; 'I' for Inactive)
REMARK    1  A    between atoms: O_1  and  C_2
REMARK    2  A    between atoms: C_2  and  C_14
REMARK                            x       y       z     vdW  Elec       q    Type
REMARK                         _______ _______ _______ _____ _____    ______ ____
ROOT
ATOM      1  C   UNL     1       2.296  -0.084  -0.236  0.00  0.00    +0.000 C 
ATOM      2  N   UNL     1       2.344   0.077   1.190  0.00  0.00    +0.000 N 
ATOM      3  C   UNL     1       1.895   1.071   2.123  0.00  0.00    +0.000 C 
ATOM      4  C   UNL     1       1.643   0.095   3.313  0.00  0.00    +0.000 C 
ATOM      5  N   UNL     1       1.065  -1.158   2.743  0.00  0.00    +0.000 NA
ATOM      6  C   UNL     1       1.787  -1.147   1.646  0.00  0.00    +0.000 C 
ATOM      7  C   UNL     1       2.126  -2.254   0.763  0.00  0.00    +0.000 A 
ATOM      8  C   UNL     1       2.508  -3.506   1.211  0.00  0.00    +0.000 A 
ATOM      9  C   UNL     1       3.796  -3.946   0.897  0.00  0.00    +0.000 A 
ATOM     10  C   UNL     1       4.696  -3.094   0.243  0.00  0.00    +0.000 A 
ATOM     11  C   UNL     1       4.257  -1.863  -0.240  0.00  0.00    +0.000 A 
ATOM     12  C   UNL     1       2.897  -1.520  -0.123  0.00  0.00    +0.000 A 
ENDROOT
BRANCH   1  13
ATOM     13  C   UNL     1       2.950   0.481  -1.466  0.00  0.00    +0.000 A 
ATOM     14  C   UNL     1       2.687  -0.332  -2.626  0.00  0.00    +0.000 A 
ATOM     15  C   UNL     1       3.389  -0.220  -3.808  0.00  0.00    +0.000 A 
ATOM     16  C   UNL     1       4.269   0.834  -3.927  0.00  0.00    +0.000 A 
ATOM     17 CL   UNL     1       5.173   0.989  -5.380  0.00  0.00    +0.000 Cl
ATOM     18  C   UNL     1       4.437   1.746  -2.871  0.00  0.00    +0.000 A 
ATOM     19  C   UNL     1       3.819   1.549  -1.616  0.00  0.00    +0.000 A 
ENDBRANCH   1  13
BRANCH   1  20
ATOM     20  O   UNL     1       0.910  -0.058  -0.582  0.00  0.00    +0.000 OA
ATOM     21  H   UNL     1       0.465   0.201   0.240  0.00  0.00    +0.000 HD
ENDBRANCH   1  20
TORSDOF 2
