REMARK  Name = Mebeverine
REMARK  19 active torsions:
REMARK  status: ('A' for Active; 'I' for Inactive)
REMARK    1  A    between atoms: C_1  and  C_2
REMARK    2  A    between atoms: C_2  and  N_3
REMARK    3  A    between atoms: N_3  and  C_4
REMARK    4  A    between atoms: N_3  and  C_21
REMARK    5  A    between atoms: C_4  and  C_5
REMARK    6  A    between atoms: C_5  and  C_6
REMARK    7  A    between atoms: C_6  and  C_7
REMARK    8  A    between atoms: C_7  and  O_8
REMARK    9  A    between atoms: O_8  and  C_9
REMARK   10  A    between atoms: C_9  and  C_11
REMARK   11  A    between atoms: C_13  and  O_14
REMARK   12  A    between atoms: O_14  and  C_15
REMARK   13  A    between atoms: C_16  and  O_17
REMARK   14  A    between atoms: O_17  and  C_18
REMARK   15  A    between atoms: C_21  and  C_22
REMARK   16  A    between atoms: C_21  and  C_23
REMARK   17  A    between atoms: C_23  and  C_24
REMARK   18  A    between atoms: C_27  and  O_28
REMARK   19  A    between atoms: O_28  and  C_29
REMARK                            x       y       z     vdW  Elec       q    Type
REMARK                         _______ _______ _______ _____ _____    ______ ____
ROOT
ATOM      1  C   UNL     1       1.027   1.595  -2.092  0.00  0.00    +0.000 C 
ENDROOT
BRANCH   1   2
ATOM      2  C   UNL     1       2.532   1.491  -1.927  0.00  0.00    +0.000 C 
BRANCH   2   3
ATOM      3  N   UNL     1       2.979   0.181  -1.391  0.00  0.00    +0.000 NA
BRANCH   3   5
ATOM      4  C   UNL     1       1.017  -0.276   0.212  0.00  0.00    +0.000 C 
ATOM      5  C   UNL     1       2.507  -0.060   0.001  0.00  0.00    +0.000 C 
ENDBRANCH   3   5
BRANCH   3   6
ATOM      6  C   UNL     1       4.477   0.099  -1.417  0.00  0.00    +0.000 C 
ATOM      7  C   UNL     1       4.943  -1.305  -0.921  0.00  0.00    +0.000 C 
BRANCH   6   8
ATOM      8  C   UNL     1       5.110   0.392  -2.817  0.00  0.00    +0.000 C 
BRANCH   8   9
ATOM      9  C   UNL     1       6.622   0.441  -2.823  0.00  0.00    +0.000 A 
ATOM     10  C   UNL     1       7.324   0.537  -4.025  0.00  0.00    +0.000 A 
ATOM     11  C   UNL     1       8.713   0.366  -4.029  0.00  0.00    +0.000 A 
ATOM     12  C   UNL     1       9.410   0.153  -2.834  0.00  0.00    +0.000 A 
ATOM     13  C   UNL     1       8.710   0.098  -1.642  0.00  0.00    +0.000 A 
ATOM     14  C   UNL     1       7.352   0.329  -1.637  0.00  0.00    +0.000 A 
BRANCH  12  15
ATOM     15  O   UNL     1      10.772   0.054  -2.913  0.00  0.00    +0.000 OA
ATOM     16  C   UNL     1      11.443  -0.016  -1.653  0.00  0.00    +0.000 C 
ENDBRANCH  12  15
ENDBRANCH   8   9
ENDBRANCH   6   8
ENDBRANCH   3   6
ENDBRANCH   2   3
ENDBRANCH   1   2
BRANCH   1  17
ATOM     17  C   UNL     1       0.518   2.922  -2.605  0.00  0.00    +0.000 C 
BRANCH  17  18
ATOM     18  C   UNL     1      -1.013   2.908  -2.530  0.00  0.00    +0.000 C 
BRANCH  18  19
ATOM     19  O   UNL     1      -1.509   4.170  -2.998  0.00  0.00    +0.000 OA
BRANCH  19  20
ATOM     20  C   UNL     1      -2.868   4.269  -2.952  0.00  0.00    +0.000 C 
ATOM     21  O   UNL     1      -3.636   3.413  -2.573  0.00  0.00    +0.000 OA
BRANCH  20  22
ATOM     22  C   UNL     1      -3.316   5.606  -3.431  0.00  0.00    +0.000 A 
ATOM     23  C   UNL     1      -4.406   6.223  -2.800  0.00  0.00    +0.000 A 
ATOM     24  C   UNL     1      -4.981   7.390  -3.336  0.00  0.00    +0.000 A 
ATOM     25  C   UNL     1      -4.376   8.012  -4.445  0.00  0.00    +0.000 A 
ATOM     26  C   UNL     1      -3.299   7.383  -5.078  0.00  0.00    +0.000 A 
ATOM     27  C   UNL     1      -2.773   6.184  -4.580  0.00  0.00    +0.000 A 
BRANCH  24  28
ATOM     28  O   UNL     1      -6.140   7.794  -2.709  0.00  0.00    +0.000 OA
ATOM     29  C   UNL     1      -6.897   8.830  -3.341  0.00  0.00    +0.000 C 
ENDBRANCH  24  28
BRANCH  25  30
ATOM     30  O   UNL     1      -4.868   9.224  -4.833  0.00  0.00    +0.000 OA
ATOM     31  C   UNL     1      -4.277   9.929  -5.905  0.00  0.00    +0.000 C 
ENDBRANCH  25  30
ENDBRANCH  20  22
ENDBRANCH  19  20
ENDBRANCH  18  19
ENDBRANCH  17  18
ENDBRANCH   1  17
TORSDOF 14
