REMARK  Name = Mebendazole
REMARK  4 active torsions:
REMARK  status: ('A' for Active; 'I' for Inactive)
REMARK    1  A    between atoms: C_1  and  O_2
REMARK    2  A    between atoms: O_2  and  C_3
REMARK    3  A    between atoms: C_12  and  C_15
REMARK    4  A    between atoms: C_15  and  C_17
REMARK                            x       y       z     vdW  Elec       q    Type
REMARK                         _______ _______ _______ _____ _____    ______ ____
ROOT
ATOM      1  C   UNL     1       3.191   0.897  -0.884  0.00  0.00    +0.000 C 
ATOM      2  O   UNL     1       2.525   1.635  -1.610  0.00  0.00    +0.000 OA
ATOM      3  N   UNL     1       4.561   0.835  -0.862  0.00  0.00    +0.000 N 
ATOM      4  C   UNL     1       5.345   1.578  -1.718  0.00  0.00    +0.000 A 
ATOM      5  N   UNL     1       6.503   1.196  -2.210  0.00  0.00    +0.000 NA
ATOM      6  C   UNL     1       6.950   2.248  -2.980  0.00  0.00    +0.000 A 
ATOM      7  C   UNL     1       6.088   3.335  -2.888  0.00  0.00    +0.000 A 
ATOM      8  N   UNL     1       5.054   2.866  -2.109  0.00  0.00    +0.000 N 
ATOM      9  C   UNL     1       6.347   4.574  -3.499  0.00  0.00    +0.000 A 
ATOM     10  C   UNL     1       7.534   4.691  -4.253  0.00  0.00    +0.000 A 
ATOM     11  C   UNL     1       8.399   3.596  -4.370  0.00  0.00    +0.000 A 
ATOM     12  C   UNL     1       8.110   2.366  -3.761  0.00  0.00    +0.000 A 
ATOM     13  H   UNL     1       4.999   0.047  -0.405  0.00  0.00    +0.000 HD
ATOM     14  H   UNL     1       4.256   3.396  -1.790  0.00  0.00    +0.000 HD
ENDROOT
BRANCH   1  16
ATOM     15  C   UNL     1       1.201  -0.018   0.012  0.00  0.00    +0.000 C 
ATOM     16  O   UNL     1       2.641   0.005  -0.009  0.00  0.00    +0.000 OA
ENDBRANCH   1  16
BRANCH  10  17
ATOM     17  C   UNL     1       7.857   6.003  -4.901  0.00  0.00    +0.000 C 
ATOM     18  O   UNL     1       7.130   6.978  -4.734  0.00  0.00    +0.000 OA
BRANCH  17  19
ATOM     19  C   UNL     1       9.053   6.163  -5.765  0.00  0.00    +0.000 A 
ATOM     20  C   UNL     1       9.989   7.161  -5.475  0.00  0.00    +0.000 A 
ATOM     21  C   UNL     1      11.061   7.375  -6.346  0.00  0.00    +0.000 A 
ATOM     22  C   UNL     1      11.239   6.547  -7.456  0.00  0.00    +0.000 A 
ATOM     23  C   UNL     1      10.318   5.536  -7.731  0.00  0.00    +0.000 A 
ATOM     24  C   UNL     1       9.211   5.361  -6.901  0.00  0.00    +0.000 A 
ENDBRANCH  17  19
ENDBRANCH  10  17
TORSDOF 3
