REMARK  Name = Mebrofenin
REMARK  12 active torsions:
REMARK  status: ('A' for Active; 'I' for Inactive)
REMARK    1  A    between atoms: C_1  and  C_2
REMARK    2  A    between atoms: C_4  and  C_5
REMARK    3  A    between atoms: C_8  and  C_9
REMARK    4  A    between atoms: C_10  and  N_11
REMARK    5  A    between atoms: C_12  and  C_14
REMARK    6  A    between atoms: C_14  and  N_15
REMARK    7  A    between atoms: N_15  and  C_16
REMARK    8  A    between atoms: N_15  and  C_20
REMARK    9  A    between atoms: C_16  and  C_17
REMARK   10  A    between atoms: C_17  and  O_18
REMARK   11  A    between atoms: C_20  and  C_21
REMARK   12  A    between atoms: C_21  and  O_22
REMARK                            x       y       z     vdW  Elec       q    Type
REMARK                         _______ _______ _______ _____ _____    ______ ____
ROOT
ATOM      1  N   UNL     1       2.600  -2.599  -0.220  0.00  0.00    +0.000 N 
ATOM      2  C   UNL     1       1.283  -2.806   0.150  0.00  0.00    +0.000 C 
ATOM      3  O   UNL     1       0.691  -2.035   0.877  0.00  0.00    +0.000 OA
ATOM      4  H   UNL     1       3.200  -3.417  -0.251  0.00  0.00    +0.000 HD
ENDROOT
BRANCH   1  14
ATOM      5  C   UNL     1       1.173   0.258  -0.100  0.00  0.00    +0.000 C 
ATOM      6  C   UNL     1       2.633  -0.029  -0.084  0.00  0.00    +0.000 A 
ATOM      7  C   UNL     1       3.343   1.174  -0.064  0.00  0.00    +0.000 A 
ATOM      8  C   UNL     1       4.717   1.201  -0.072  0.00  0.00    +0.000 A 
ATOM      9  C   UNL     1       5.367   2.549  -0.082  0.00  0.00    +0.000 C 
ATOM     10  C   UNL     1       5.403  -0.019  -0.076  0.00  0.00    +0.000 A 
ATOM     11 BR   UNL     1       7.317   0.075  -0.064  0.00  0.00    +0.000 Br
ATOM     12  C   UNL     1       4.711  -1.271  -0.100  0.00  0.00    +0.000 A 
ATOM     13  C   UNL     1       5.482  -2.565  -0.081  0.00  0.00    +0.000 C 
ATOM     14  C   UNL     1       3.284  -1.298  -0.117  0.00  0.00    +0.000 A 
ENDBRANCH   1  14
BRANCH   2  15
ATOM     15  C   UNL     1       0.454  -4.064  -0.201  0.00  0.00    +0.000 C 
BRANCH  15  16
ATOM     16  N   UNL     1      -1.045  -3.673  -0.226  0.00  0.00    +0.000 NA
BRANCH  16  17
ATOM     17  C   UNL     1      -1.398  -2.956  -1.487  0.00  0.00    +0.000 C 
BRANCH  17  18
ATOM     18  C   UNL     1      -1.145  -1.470  -1.437  0.00  0.00    +0.000 C 
ATOM     19  O   UNL     1      -1.006  -0.767  -2.433  0.00  0.00    +0.000 OA
BRANCH  18  20
ATOM     20  O   UNL     1      -1.290  -0.965  -0.190  0.00  0.00    +0.000 OA
ATOM     21  H   UNL     1      -0.757  -1.537   0.430  0.00  0.00    +0.000 HD
ENDBRANCH  18  20
ENDBRANCH  17  18
ENDBRANCH  16  17
BRANCH  16  22
ATOM     22  C   UNL     1      -1.857  -4.918  -0.127  0.00  0.00    +0.000 C 
BRANCH  22  23
ATOM     23  C   UNL     1      -3.384  -4.742  -0.066  0.00  0.00    +0.000 C 
ATOM     24  O   UNL     1      -4.140  -5.704  -0.154  0.00  0.00    +0.000 OA
BRANCH  23  25
ATOM     25  O   UNL     1      -3.873  -3.494   0.096  0.00  0.00    +0.000 OA
ATOM     26  H   UNL     1      -3.199  -2.797   0.225  0.00  0.00    +0.000 HD
ENDBRANCH  23  25
ENDBRANCH  22  23
ENDBRANCH  16  22
ENDBRANCH  15  16
ENDBRANCH   2  15
TORSDOF 9
