REMARK  Name = Mebutamate
REMARK  11 active torsions:
REMARK  status: ('A' for Active; 'I' for Inactive)
REMARK    1  A    between atoms: C_1  and  C_2
REMARK    2  A    between atoms: C_2  and  C_3
REMARK    3  A    between atoms: C_3  and  C_4
REMARK    4  A    between atoms: C_3  and  C_5
REMARK    5  A    between atoms: C_5  and  C_6
REMARK    6  A    between atoms: C_5  and  C_7
REMARK    7  A    between atoms: C_5  and  C_12
REMARK    8  A    between atoms: C_7  and  O_8
REMARK    9  A    between atoms: O_8  and  C_9
REMARK   10  A    between atoms: C_12  and  O_13
REMARK   11  A    between atoms: O_13  and  C_14
REMARK                            x       y       z     vdW  Elec       q    Type
REMARK                         _______ _______ _______ _____ _____    ______ ____
ROOT
ATOM      1  C   UNL     1       4.520  -0.903   1.096  0.00  0.00    +0.000 C 
ATOM      2  C   UNL     1       5.082  -1.341  -0.275  0.00  0.00    +0.000 C 
ENDROOT
BRANCH   1   3
ATOM      3  C   UNL     1       2.940  -0.928   1.071  0.00  0.00    +0.000 C 
ATOM      4  C   UNL     1       2.394  -2.349   0.818  0.00  0.00    +0.000 C 
BRANCH   3   6
ATOM      5  C   UNL     1       0.822   0.074   0.023  0.00  0.00    +0.000 C 
ATOM      6  C   UNL     1       2.334   0.044   0.035  0.00  0.00    +0.000 C 
ENDBRANCH   3   6
ENDBRANCH   1   3
BRANCH   1   7
ATOM      7  C   UNL     1       5.077   0.515   1.436  0.00  0.00    +0.000 C 
BRANCH   7   8
ATOM      8  O   UNL     1       4.763   1.463   0.397  0.00  0.00    +0.000 OA
BRANCH   8   9
ATOM      9  C   UNL     1       4.936   2.799   0.516  0.00  0.00    +0.000 C 
ATOM     10  N   UNL     1       5.644   3.226   1.589  0.00  0.00    +0.000 N 
ATOM     11  O   UNL     1       4.500   3.591  -0.312  0.00  0.00    +0.000 OA
ATOM     12  H   UNL     1       6.073   2.612   2.259  0.00  0.00    +0.000 HD
ATOM     13  H   UNL     1       5.877   4.209   1.610  0.00  0.00    +0.000 HD
ENDBRANCH   8   9
ENDBRANCH   7   8
ENDBRANCH   1   7
BRANCH   1  14
ATOM     14  C   UNL     1       5.021  -1.885   2.194  0.00  0.00    +0.000 C 
BRANCH  14  15
ATOM     15  O   UNL     1       6.456  -1.889   2.263  0.00  0.00    +0.000 OA
BRANCH  15  16
ATOM     16  C   UNL     1       7.132  -2.715   3.101  0.00  0.00    +0.000 C 
ATOM     17  N   UNL     1       6.398  -3.496   3.938  0.00  0.00    +0.000 N 
ATOM     18  O   UNL     1       8.356  -2.749   3.125  0.00  0.00    +0.000 OA
ATOM     19  H   UNL     1       5.394  -3.534   3.972  0.00  0.00    +0.000 HD
ATOM     20  H   UNL     1       6.919  -4.092   4.566  0.00  0.00    +0.000 HD
ENDBRANCH  15  16
ENDBRANCH  14  15
ENDBRANCH   1  14
TORSDOF 8
