REMARK  Name = Mecamylamine
REMARK  5 active torsions:
REMARK  status: ('A' for Active; 'I' for Inactive)
REMARK    1  A    between atoms: C_1  and  N_2
REMARK    2  A    between atoms: N_2  and  C_3
REMARK    3  A    between atoms: C_3  and  C_4
REMARK    4  A    between atoms: C_10  and  C_11
REMARK    5  A    between atoms: C_10  and  C_12
REMARK                            x       y       z     vdW  Elec       q    Type
REMARK                         _______ _______ _______ _____ _____    ______ ____
ROOT
ATOM      1  C   UNL     1       2.908   0.459  -1.214  0.00  0.00    +0.000 C 
ATOM      2  C   UNL     1       4.254   1.183  -0.919  0.00  0.00    +0.000 C 
ATOM      3  C   UNL     1       3.230  -0.710  -2.239  0.00  0.00    +0.000 C 
ATOM      4  C   UNL     1       2.061  -1.698  -2.349  0.00  0.00    +0.000 C 
ATOM      5  C   UNL     1       0.990  -0.860  -3.060  0.00  0.00    +0.000 C 
ATOM      6  C   UNL     1       1.711   0.480  -3.358  0.00  0.00    +0.000 C 
ATOM      7  C   UNL     1       3.131  -0.032  -3.610  0.00  0.00    +0.000 C 
ATOM      8  C   UNL     1       1.888   1.364  -2.072  0.00  0.00    +0.000 C 
ATOM      9  C   UNL     1       0.523   1.749  -1.474  0.00  0.00    +0.000 C 
ATOM     10  C   UNL     1       2.482   2.754  -2.445  0.00  0.00    +0.000 C 
ENDROOT
BRANCH   1  12
ATOM     11  C   UNL     1       1.186  -0.273   0.503  0.00  0.00    +0.000 C 
ATOM     12  N   UNL     1       2.563  -0.098   0.107  0.00  0.00    +0.000 NA
ATOM     13  H   UNL     1       3.065  -0.982   0.239  0.00  0.00    +0.000 HD
ENDBRANCH   1  12
TORSDOF 1
