REMARK  Name = Mechlorethamine
REMARK  5 active torsions:
REMARK  status: ('A' for Active; 'I' for Inactive)
REMARK    1  A    between atoms: C_1  and  N_2
REMARK    2  A    between atoms: N_2  and  C_3
REMARK    3  A    between atoms: N_2  and  C_6
REMARK    4  A    between atoms: C_3  and  C_4
REMARK    5  A    between atoms: C_6  and  C_7
REMARK                            x       y       z     vdW  Elec       q    Type
REMARK                         _______ _______ _______ _____ _____    ______ ____
ROOT
ATOM      1  C   UNL     1       1.039   0.030  -0.131  0.00  0.00    +0.000 C 
ATOM      2  N   UNL     1       2.505  -0.050  -0.082  0.00  0.00    +0.000 NA
ENDROOT
BRANCH   2   3
ATOM      3  C   UNL     1       2.957  -1.390   0.357  0.00  0.00    +0.000 C 
BRANCH   3   4
ATOM      4  C   UNL     1       2.503  -1.777   1.770  0.00  0.00    +0.000 C 
ATOM      5 CL   UNL     1       3.171  -3.368   2.220  0.00  0.00    +0.000 Cl
ENDBRANCH   3   4
ENDBRANCH   2   3
BRANCH   2   6
ATOM      6  C   UNL     1       3.049   0.295  -1.421  0.00  0.00    +0.000 C 
BRANCH   6   7
ATOM      7  C   UNL     1       4.580   0.367  -1.487  0.00  0.00    +0.000 C 
ATOM      8 CL   UNL     1       5.119   0.844  -3.118  0.00  0.00    +0.000 Cl
ENDBRANCH   6   7
ENDBRANCH   2   6
TORSDOF 4
