REMARK  Name = Meclizine
REMARK  6 active torsions:
REMARK  status: ('A' for Active; 'I' for Inactive)
REMARK    1  A    between atoms: C_1  and  C_2
REMARK    2  A    between atoms: C_4  and  C_5
REMARK    3  A    between atoms: C_5  and  N_6
REMARK    4  A    between atoms: N_9  and  C_12
REMARK    5  A    between atoms: C_12  and  C_13
REMARK    6  A    between atoms: C_12  and  C_19
REMARK                            x       y       z     vdW  Elec       q    Type
REMARK                         _______ _______ _______ _____ _____    ______ ____
ROOT
ATOM      1  N   UNL     1      -2.864  -2.342  -0.032  0.00  0.00    +0.000 NA
ATOM      2  C   UNL     1      -3.050  -1.602   1.352  0.00  0.00    +0.000 C 
ATOM      3  C   UNL     1      -2.847  -0.076   1.224  0.00  0.00    +0.000 C 
ATOM      4  N   UNL     1      -3.520   0.652  -0.061  0.00  0.00    +0.000 NA
ATOM      5  C   UNL     1      -3.441  -0.091  -1.491  0.00  0.00    +0.000 C 
ATOM      6  C   UNL     1      -3.453  -1.687  -1.387  0.00  0.00    +0.000 C 
ENDROOT
BRANCH   1   7
ATOM      7  C   UNL     1      -1.399  -2.642  -0.177  0.00  0.00    +0.000 C 
BRANCH   7  11
ATOM      8  C   UNL     1       2.930   0.020   0.037  0.00  0.00    +0.000 C 
ATOM      9  C   UNL     1       1.476  -0.062   0.045  0.00  0.00    +0.000 A 
ATOM     10  C   UNL     1       0.873  -1.375  -0.012  0.00  0.00    +0.000 A 
ATOM     11  C   UNL     1      -0.414  -1.470  -0.264  0.00  0.00    +0.000 A 
ATOM     12  C   UNL     1      -0.908  -0.210  -0.519  0.00  0.00    +0.000 A 
ATOM     13  C   UNL     1      -0.486   1.110  -0.320  0.00  0.00    +0.000 A 
ATOM     14  C   UNL     1       0.781   1.180  -0.024  0.00  0.00    +0.000 A 
ENDBRANCH   7  11
ENDBRANCH   1   7
BRANCH   4  15
ATOM     15  C   UNL     1      -4.945   1.099   0.208  0.00  0.00    +0.000 C 
BRANCH  15  16
ATOM     16  C   UNL     1      -4.926   2.013   1.429  0.00  0.00    +0.000 A 
ATOM     17  C   UNL     1      -5.039   3.391   1.284  0.00  0.00    +0.000 A 
ATOM     18  C   UNL     1      -4.811   4.215   2.387  0.00  0.00    +0.000 A 
ATOM     19  C   UNL     1      -4.417   3.671   3.614  0.00  0.00    +0.000 A 
ATOM     20 CL   UNL     1      -4.234   4.673   4.996  0.00  0.00    +0.000 Cl
ATOM     21  C   UNL     1      -4.265   2.308   3.762  0.00  0.00    +0.000 A 
ATOM     22  C   UNL     1      -4.659   1.494   2.714  0.00  0.00    +0.000 A 
ENDBRANCH  15  16
BRANCH  15  23
ATOM     23  C   UNL     1      -5.997  -0.001   0.341  0.00  0.00    +0.000 A 
ATOM     24  C   UNL     1      -7.328   0.034   0.561  0.00  0.00    +0.000 A 
ATOM     25  C   UNL     1      -8.021  -1.201   0.779  0.00  0.00    +0.000 A 
ATOM     26  C   UNL     1      -7.412  -2.483   0.773  0.00  0.00    +0.000 A 
ATOM     27  C   UNL     1      -6.102  -2.544   0.517  0.00  0.00    +0.000 A 
ATOM     28  C   UNL     1      -5.570  -1.294   0.325  0.00  0.00    +0.000 A 
ENDBRANCH  15  23
ENDBRANCH   4  15
TORSDOF 5
