REMARK  Name = Meclofenamic acid
REMARK  5 active torsions:
REMARK  status: ('A' for Active; 'I' for Inactive)
REMARK    1  A    between atoms: C_1  and  C_2
REMARK    2  A    between atoms: C_5  and  N_6
REMARK    3  A    between atoms: N_6  and  C_7
REMARK    4  A    between atoms: C_12  and  C_13
REMARK    5  A    between atoms: C_13  and  O_14
REMARK                            x       y       z     vdW  Elec       q    Type
REMARK                         _______ _______ _______ _____ _____    ______ ____
ROOT
ATOM      1  N   UNL     1      -0.615  -2.121   0.142  0.00  0.00    +0.000 N 
ATOM      2  H   UNL     1       0.214  -2.667  -0.099  0.00  0.00    +0.000 HD
ENDROOT
BRANCH   1   7
ATOM      3  C   UNL     1       2.617   1.725   0.027  0.00  0.00    +0.000 C 
ATOM      4  C   UNL     1       1.234   1.140   0.020  0.00  0.00    +0.000 A 
ATOM      5  C   UNL     1       0.956  -0.240   0.054  0.00  0.00    +0.000 A 
ATOM      6 CL   UNL     1       2.260  -1.398   0.006  0.00  0.00    +0.000 Cl
ATOM      7  C   UNL     1      -0.379  -0.718   0.126  0.00  0.00    +0.000 A 
ATOM      8  C   UNL     1      -1.416   0.245   0.213  0.00  0.00    +0.000 A 
ATOM      9 CL   UNL     1      -3.093  -0.090   0.531  0.00  0.00    +0.000 Cl
ATOM     10  C   UNL     1      -1.146   1.599   0.071  0.00  0.00    +0.000 A 
ATOM     11  C   UNL     1       0.163   2.045  -0.002  0.00  0.00    +0.000 A 
ENDBRANCH   1   7
BRANCH   1  12
ATOM     12  C   UNL     1      -1.822  -2.773  -0.189  0.00  0.00    +0.000 A 
ATOM     13  C   UNL     1      -2.256  -3.705   0.776  0.00  0.00    +0.000 A 
ATOM     14  C   UNL     1      -3.493  -4.325   0.669  0.00  0.00    +0.000 A 
ATOM     15  C   UNL     1      -4.334  -3.982  -0.379  0.00  0.00    +0.000 A 
ATOM     16  C   UNL     1      -3.909  -3.090  -1.371  0.00  0.00    +0.000 A 
ATOM     17  C   UNL     1      -2.632  -2.497  -1.328  0.00  0.00    +0.000 A 
BRANCH  17  18
ATOM     18  C   UNL     1      -2.205  -1.499  -2.390  0.00  0.00    +0.000 C 
ATOM     19  O   UNL     1      -1.072  -1.046  -2.502  0.00  0.00    +0.000 OA
BRANCH  18  20
ATOM     20  O   UNL     1      -3.154  -1.076  -3.255  0.00  0.00    +0.000 OA
ATOM     21  H   UNL     1      -4.039  -1.462  -3.209  0.00  0.00    +0.000 HD
ENDBRANCH  18  20
ENDBRANCH  17  18
ENDBRANCH   1  12
TORSDOF 4
