REMARK  Name = Medifoxamine
REMARK  8 active torsions:
REMARK  status: ('A' for Active; 'I' for Inactive)
REMARK    1  A    between atoms: C_1  and  N_2
REMARK    2  A    between atoms: N_2  and  C_3
REMARK    3  A    between atoms: N_2  and  C_4
REMARK    4  A    between atoms: C_4  and  C_5
REMARK    5  A    between atoms: C_5  and  O_6
REMARK    6  A    between atoms: C_5  and  O_13
REMARK    7  A    between atoms: O_6  and  C_7
REMARK    8  A    between atoms: O_13  and  C_14
REMARK                            x       y       z     vdW  Elec       q    Type
REMARK                         _______ _______ _______ _____ _____    ______ ____
ROOT
ATOM      1  C   UNL     1       4.552   1.186  -0.532  0.00  0.00    +0.000 C 
ENDROOT
BRANCH   1   2
ATOM      2  C   UNL     1       2.958   1.405  -0.748  0.00  0.00    +0.000 C 
BRANCH   2   4
ATOM      3  C   UNL     1       0.702   0.437  -0.042  0.00  0.00    +0.000 C 
ATOM      4  N   UNL     1       2.099   0.281  -0.396  0.00  0.00    +0.000 NA
ATOM      5  C   UNL     1       2.165  -0.707  -1.469  0.00  0.00    +0.000 C 
ENDBRANCH   2   4
ENDBRANCH   1   2
BRANCH   1   6
ATOM      6  O   UNL     1       5.201  -0.050  -0.984  0.00  0.00    +0.000 OA
BRANCH   6   7
ATOM      7  C   UNL     1       5.055  -1.318  -0.442  0.00  0.00    +0.000 A 
ATOM      8  C   UNL     1       5.844  -2.354  -0.987  0.00  0.00    +0.000 A 
ATOM      9  C   UNL     1       5.403  -3.696  -0.928  0.00  0.00    +0.000 A 
ATOM     10  C   UNL     1       4.144  -4.006  -0.450  0.00  0.00    +0.000 A 
ATOM     11  C   UNL     1       3.431  -2.994   0.186  0.00  0.00    +0.000 A 
ATOM     12  C   UNL     1       4.006  -1.720   0.354  0.00  0.00    +0.000 A 
ENDBRANCH   6   7
ENDBRANCH   1   6
BRANCH   1  13
ATOM     13  O   UNL     1       5.058   2.412  -1.190  0.00  0.00    +0.000 OA
BRANCH  13  14
ATOM     14  C   UNL     1       6.389   2.617  -1.381  0.00  0.00    +0.000 A 
ATOM     15  C   UNL     1       6.879   3.920  -1.214  0.00  0.00    +0.000 A 
ATOM     16  C   UNL     1       8.216   4.217  -1.511  0.00  0.00    +0.000 A 
ATOM     17  C   UNL     1       9.077   3.206  -1.932  0.00  0.00    +0.000 A 
ATOM     18  C   UNL     1       8.587   1.919  -2.119  0.00  0.00    +0.000 A 
ATOM     19  C   UNL     1       7.244   1.642  -1.879  0.00  0.00    +0.000 A 
ENDBRANCH  13  14
ENDBRANCH   1  13
TORSDOF 6
