REMARK  Name = Medroxyprogesterone acetate
REMARK  8 active torsions:
REMARK  status: ('A' for Active; 'I' for Inactive)
REMARK    1  A    between atoms: C_5  and  O_6
REMARK    2  A    between atoms: C_5  and  C_10
REMARK    3  A    between atoms: O_6  and  C_7
REMARK    4  A    between atoms: C_7  and  C_8
REMARK    5  A    between atoms: C_10  and  C_11
REMARK    6  A    between atoms: C_13  and  C_14
REMARK    7  A    between atoms: C_22  and  C_23
REMARK    8  A    between atoms: C_30  and  C_31
REMARK                            x       y       z     vdW  Elec       q    Type
REMARK                         _______ _______ _______ _____ _____    ______ ____
ROOT
ATOM      1  C   UNL     1       1.949   0.005  -0.286  0.00  0.00    +0.000 C 
ATOM      2  C   UNL     1       2.307   0.016  -1.660  0.00  0.00    +0.000 C 
ATOM      3  C   UNL     1       3.331  -0.303  -0.655  0.00  0.00    +0.000 C 
ATOM      4  C   UNL     1       2.576  -0.762   1.244  0.00  0.00    +0.000 C 
ATOM      5  C   UNL     1       2.821  -1.596   0.160  0.00  0.00    +0.000 C 
ATOM      6  C   UNL     1       1.967  -2.737  -0.291  0.00  0.00    +0.000 C 
ATOM      7  C   UNL     1       4.601  -1.389   0.711  0.00  0.00    +0.000 C 
ATOM      8  C   UNL     1       4.913   0.110   1.444  0.00  0.00    +0.000 C 
ATOM      9  C   UNL     1       4.372   1.510   0.813  0.00  0.00    +0.000 C 
ATOM     10  C   UNL     1       2.740   1.486   0.591  0.00  0.00    +0.000 C 
ATOM     11  C   UNL     1       2.210   2.731  -0.083  0.00  0.00    +0.000 C 
ATOM     12  C   UNL     1       2.639   3.979   0.636  0.00  0.00    +0.000 C 
ATOM     13  C   UNL     1       2.109   5.140  -0.188  0.00  0.00    +0.000 C 
ATOM     14  C   UNL     1       4.118   4.043   0.885  0.00  0.00    +0.000 C 
ATOM     15  C   UNL     1       4.803   5.166   0.635  0.00  0.00    +0.000 C 
ATOM     16  C   UNL     1       6.121   5.193   1.238  0.00  0.00    +0.000 C 
ATOM     17  O   UNL     1       6.355   5.366   2.430  0.00  0.00    +0.000 OA
ATOM     18  C   UNL     1       7.074   4.501   0.408  0.00  0.00    +0.000 C 
ATOM     19  C   UNL     1       6.538   3.047   1.088  0.00  0.00    +0.000 C 
ATOM     20  C   UNL     1       4.845   2.841   1.497  0.00  0.00    +0.000 C 
ATOM     21  C   UNL     1       4.351   2.745   2.980  0.00  0.00    +0.000 C 
ENDROOT
BRANCH   4  22
ATOM     22  C   UNL     1       2.760  -2.042   2.424  0.00  0.00    +0.000 C 
ATOM     23  C   UNL     1       3.439  -3.441   2.170  0.00  0.00    +0.000 C 
ATOM     24  O   UNL     1       2.296  -1.892   3.572  0.00  0.00    +0.000 OA
ENDBRANCH   4  22
BRANCH   4  25
ATOM     25  O   UNL     1       0.914  -0.987   1.543  0.00  0.00    +0.000 OA
BRANCH  25  26
ATOM     26  C   UNL     1      -0.245  -0.226   1.642  0.00  0.00    +0.000 C 
ATOM     27  C   UNL     1      -0.094   1.187   1.235  0.00  0.00    +0.000 C 
ATOM     28  O   UNL     1      -1.350  -0.684   1.877  0.00  0.00    +0.000 OA
ENDBRANCH  25  26
ENDBRANCH   4  25
TORSDOF 3
