REMARK  Name = Medronic acid
REMARK  6 active torsions:
REMARK  status: ('A' for Active; 'I' for Inactive)
REMARK    1  A    between atoms: O_1  and  P_2
REMARK    2  A    between atoms: P_2  and  O_3
REMARK    3  A    between atoms: P_2  and  C_5
REMARK    4  A    between atoms: C_5  and  P_6
REMARK    5  A    between atoms: P_6  and  O_7
REMARK    6  A    between atoms: P_6  and  O_8
REMARK                            x       y       z     vdW  Elec       q    Type
REMARK                         _______ _______ _______ _____ _____    ______ ____
ROOT
ATOM      1  C   UNL     1       4.501   0.034  -0.074  0.00  0.00    +0.000 C 
ENDROOT
BRANCH   1   2
ATOM      2  P   UNL     1       2.671   0.034  -0.074  0.00  0.00    +0.000 P 
ATOM      3  O   UNL     1       2.708  -0.200   1.441  0.00  0.00    +0.000 OA
BRANCH   2   4
ATOM      4  O   UNL     1       0.941   0.034  -0.074  0.00  0.00    +0.000 OA
ATOM      5  H   UNL     1       0.602  -0.476  -0.834  0.00  0.00    +0.000 HD
ENDBRANCH   2   4
BRANCH   2   6
ATOM      6  O   UNL     1       2.590   1.645  -0.324  0.00  0.00    +0.000 OA
ATOM      7  H   UNL     1       1.979   2.014   0.347  0.00  0.00    +0.000 HD
ENDBRANCH   2   6
ENDBRANCH   1   2
BRANCH   1   8
ATOM      8  P   UNL     1       5.111  -1.623  -0.557  0.00  0.00    +0.000 P 
ATOM      9  O   UNL     1       5.627  -3.024  -0.966  0.00  0.00    +0.000 OA
BRANCH   8  10
ATOM     10  O   UNL     1       4.376  -2.220   0.788  0.00  0.00    +0.000 OA
ATOM     11  H   UNL     1       3.907  -1.628   1.427  0.00  0.00    +0.000 HD
ENDBRANCH   8  10
BRANCH   8  12
ATOM     12  O   UNL     1       3.851  -1.628  -1.616  0.00  0.00    +0.000 OA
ATOM     13  H   UNL     1       4.085  -2.151  -2.417  0.00  0.00    +0.000 HD
ENDBRANCH   8  12
ENDBRANCH   1   8
TORSDOF 6
