REMARK  Name = Medrysone
REMARK  6 active torsions:
REMARK  status: ('A' for Active; 'I' for Inactive)
REMARK    1  A    between atoms: C_5  and  C_6
REMARK    2  A    between atoms: C_6  and  C_7
REMARK    3  A    between atoms: C_9  and  C_10
REMARK    4  A    between atoms: C_12  and  O_13
REMARK    5  A    between atoms: C_19  and  C_20
REMARK    6  A    between atoms: C_27  and  C_28
REMARK                            x       y       z     vdW  Elec       q    Type
REMARK                         _______ _______ _______ _____ _____    ______ ____
ROOT
ATOM      1  C   UNL     1       1.728  -0.124  -0.214  0.00  0.00    +0.000 C 
ATOM      2  C   UNL     1       2.142  -0.097  -1.576  0.00  0.00    +0.000 C 
ATOM      3  C   UNL     1       3.297  -0.404  -0.682  0.00  0.00    +0.000 C 
ATOM      4  C   UNL     1       2.726  -0.963   1.227  0.00  0.00    +0.000 C 
ATOM      5  C   UNL     1       2.676  -1.714   0.085  0.00  0.00    +0.000 C 
ATOM      6  C   UNL     1       1.859  -2.869  -0.323  0.00  0.00    +0.000 C 
ATOM      7  C   UNL     1       4.513  -1.560   0.615  0.00  0.00    +0.000 C 
ATOM      8  C   UNL     1       4.852  -0.046   1.436  0.00  0.00    +0.000 C 
ATOM      9  C   UNL     1       4.212   1.343   0.862  0.00  0.00    +0.000 C 
ATOM     10  C   UNL     1       2.485   1.309   0.668  0.00  0.00    +0.000 C 
ATOM     11  C   UNL     1       2.010   2.536  -0.057  0.00  0.00    +0.000 C 
ATOM     12  C   UNL     1       2.550   3.794   0.581  0.00  0.00    +0.000 C 
ATOM     13  C   UNL     1       2.068   4.949  -0.271  0.00  0.00    +0.000 C 
ATOM     14  C   UNL     1       4.045   3.856   0.802  0.00  0.00    +0.000 C 
ATOM     15  C   UNL     1       4.759   4.961   0.539  0.00  0.00    +0.000 C 
ATOM     16  C   UNL     1       6.084   5.000   1.143  0.00  0.00    +0.000 C 
ATOM     17  O   UNL     1       6.334   5.160   2.335  0.00  0.00    +0.000 OA
ATOM     18  C   UNL     1       7.049   4.344   0.305  0.00  0.00    +0.000 C 
ATOM     19  C   UNL     1       6.475   2.869   0.994  0.00  0.00    +0.000 C 
ATOM     20  C   UNL     1       4.760   2.681   1.449  0.00  0.00    +0.000 C 
ATOM     21  C   UNL     1       4.293   2.650   2.924  0.00  0.00    +0.000 C 
ENDROOT
BRANCH   4  22
ATOM     22  C   UNL     1       2.740  -2.328   2.322  0.00  0.00    +0.000 C 
ATOM     23  C   UNL     1       3.457  -3.680   2.070  0.00  0.00    +0.000 C 
ATOM     24  O   UNL     1       2.186  -2.195   3.429  0.00  0.00    +0.000 OA
ENDBRANCH   4  22
BRANCH   8  25
ATOM     25  O   UNL     1       4.474  -0.244   2.818  0.00  0.00    +0.000 OA
ATOM     26  H   UNL     1       3.551   0.040   2.991  0.00  0.00    +0.000 HD
ENDBRANCH   8  25
TORSDOF 2
