REMARK  Name = Medrogestone
REMARK  6 active torsions:
REMARK  status: ('A' for Active; 'I' for Inactive)
REMARK    1  A    between atoms: C_5  and  C_6
REMARK    2  A    between atoms: C_5  and  C_7
REMARK    3  A    between atoms: C_7  and  C_8
REMARK    4  A    between atoms: C_10  and  C_11
REMARK    5  A    between atoms: C_19  and  C_20
REMARK    6  A    between atoms: C_27  and  C_28
REMARK                            x       y       z     vdW  Elec       q    Type
REMARK                         _______ _______ _______ _____ _____    ______ ____
ROOT
ATOM      1  C   UNL     1       1.776   0.099   0.177  0.00  0.00    +0.000 C 
ATOM      2  C   UNL     1       2.146  -0.040   1.541  0.00  0.00    +0.000 C 
ATOM      3  C   UNL     1       3.191   0.426   0.601  0.00  0.00    +0.000 C 
ATOM      4  C   UNL     1       2.488   1.121  -1.256  0.00  0.00    +0.000 C 
ATOM      5  C   UNL     1       0.821   1.284  -1.699  0.00  0.00    +0.000 C 
ATOM      6  C   UNL     1       2.714   1.748  -0.046  0.00  0.00    +0.000 C 
ATOM      7  C   UNL     1       1.974   2.866   0.582  0.00  0.00    +0.000 C 
ATOM      8  C   UNL     1       4.526   1.570  -0.600  0.00  0.00    +0.000 C 
ATOM      9  C   UNL     1       4.829   0.165  -1.473  0.00  0.00    +0.000 C 
ATOM     10  C   UNL     1       4.248  -1.237  -0.974  0.00  0.00    +0.000 C 
ATOM     11  C   UNL     1       2.526  -1.214  -0.845  0.00  0.00    +0.000 C 
ATOM     12  C   UNL     1       2.008  -2.495  -0.337  0.00  0.00    +0.000 C 
ATOM     13  C   UNL     1       2.739  -3.611  -0.283  0.00  0.00    +0.000 C 
ATOM     14  C   UNL     1       2.067  -4.841   0.226  0.00  0.00    +0.000 C 
ATOM     15  C   UNL     1       4.083  -3.734  -0.846  0.00  0.00    +0.000 C 
ATOM     16  C   UNL     1       4.787  -4.870  -0.733  0.00  0.00    +0.000 C 
ATOM     17  C   UNL     1       5.992  -4.913  -1.561  0.00  0.00    +0.000 C 
ATOM     18  O   UNL     1       6.023  -4.994  -2.786  0.00  0.00    +0.000 OA
ATOM     19  C   UNL     1       7.126  -4.338  -0.885  0.00  0.00    +0.000 C 
ATOM     20  C   UNL     1       6.505  -2.794  -1.335  0.00  0.00    +0.000 C 
ATOM     21  C   UNL     1       4.756  -2.571  -1.594  0.00  0.00    +0.000 C 
ATOM     22  C   UNL     1       4.173  -2.519  -3.027  0.00  0.00    +0.000 C 
ENDROOT
BRANCH   4  23
ATOM     23  C   UNL     1       2.825   2.508  -2.271  0.00  0.00    +0.000 C 
ATOM     24  C   UNL     1       3.494   3.830  -1.831  0.00  0.00    +0.000 C 
ATOM     25  O   UNL     1       2.419   2.520  -3.450  0.00  0.00    +0.000 OA
ENDBRANCH   4  23
TORSDOF 1
