REMARK  Name = Mefenamic acid
REMARK  6 active torsions:
REMARK  status: ('A' for Active; 'I' for Inactive)
REMARK    1  A    between atoms: C_1  and  C_2
REMARK    2  A    between atoms: C_3  and  C_4
REMARK    3  A    between atoms: C_5  and  N_6
REMARK    4  A    between atoms: N_6  and  C_7
REMARK    5  A    between atoms: C_12  and  C_13
REMARK    6  A    between atoms: C_13  and  O_14
REMARK                            x       y       z     vdW  Elec       q    Type
REMARK                         _______ _______ _______ _____ _____    ______ ____
ROOT
ATOM      1  N   UNL     1      -0.696  -2.779   0.198  0.00  0.00    +0.000 N 
ATOM      2  H   UNL     1       0.163  -3.265  -0.035  0.00  0.00    +0.000 HD
ENDROOT
BRANCH   1   7
ATOM      3  C   UNL     1       1.863   1.560  -0.019  0.00  0.00    +0.000 C 
ATOM      4  C   UNL     1       0.621   0.718   0.035  0.00  0.00    +0.000 A 
ATOM      5  C   UNL     1       0.625  -0.695   0.085  0.00  0.00    +0.000 A 
ATOM      6  C   UNL     1       1.896  -1.506   0.046  0.00  0.00    +0.000 C 
ATOM      7  C   UNL     1      -0.618  -1.368   0.139  0.00  0.00    +0.000 A 
ATOM      8  C   UNL     1      -1.813  -0.623   0.184  0.00  0.00    +0.000 A 
ATOM      9  C   UNL     1      -1.816   0.755   0.101  0.00  0.00    +0.000 A 
ATOM     10  C   UNL     1      -0.604   1.420   0.042  0.00  0.00    +0.000 A 
ENDBRANCH   1   7
BRANCH   1  11
ATOM     11  C   UNL     1      -1.849  -3.553  -0.066  0.00  0.00    +0.000 A 
ATOM     12  C   UNL     1      -2.131  -4.528   0.912  0.00  0.00    +0.000 A 
ATOM     13  C   UNL     1      -3.248  -5.345   0.812  0.00  0.00    +0.000 A 
ATOM     14  C   UNL     1      -4.133  -5.156  -0.239  0.00  0.00    +0.000 A 
ATOM     15  C   UNL     1      -3.863  -4.208  -1.233  0.00  0.00    +0.000 A 
ATOM     16  C   UNL     1      -2.704  -3.410  -1.195  0.00  0.00    +0.000 A 
BRANCH  16  17
ATOM     17  C   UNL     1      -2.410  -2.426  -2.316  0.00  0.00    +0.000 C 
ATOM     18  O   UNL     1      -1.341  -1.852  -2.482  0.00  0.00    +0.000 OA
BRANCH  17  19
ATOM     19  O   UNL     1      -3.409  -2.183  -3.193  0.00  0.00    +0.000 OA
ATOM     20  H   UNL     1      -4.208  -2.725  -3.163  0.00  0.00    +0.000 HD
ENDBRANCH  17  19
ENDBRANCH  16  17
ENDBRANCH   1  11
TORSDOF 4
