REMARK  Name = Mefloquine
REMARK  5 active torsions:
REMARK  status: ('A' for Active; 'I' for Inactive)
REMARK    1  A    between atoms: O_1  and  C_2
REMARK    2  A    between atoms: C_2  and  C_3
REMARK    3  A    between atoms: C_2  and  C_9
REMARK    4  A    between atoms: C_11  and  C_23
REMARK    5  A    between atoms: C_18  and  C_19
REMARK                            x       y       z     vdW  Elec       q    Type
REMARK                         _______ _______ _______ _____ _____    ______ ____
ROOT
ATOM      1  C   UNL     1       2.715   1.074   1.032  0.00  0.00    +0.000 A 
ATOM      2  C   UNL     1       2.248   2.389   0.878  0.00  0.00    +0.000 A 
ATOM      3  C   UNL     1       2.700   3.410   1.690  0.00  0.00    +0.000 A 
ATOM      4  N   UNL     1       3.486   3.146   2.756  0.00  0.00    +0.000 NA
ATOM      5  C   UNL     1       3.842   1.880   3.018  0.00  0.00    +0.000 A 
ATOM      6  C   UNL     1       3.517   0.791   2.158  0.00  0.00    +0.000 A 
ATOM      7  C   UNL     1       3.977  -0.500   2.495  0.00  0.00    +0.000 A 
ATOM      8  C   UNL     1       4.679  -0.730   3.672  0.00  0.00    +0.000 A 
ATOM      9  C   UNL     1       4.954   0.333   4.521  0.00  0.00    +0.000 A 
ATOM     10  C   UNL     1       4.546   1.634   4.187  0.00  0.00    +0.000 A 
ENDROOT
BRANCH  10  11
ATOM     11  C   UNL     1       4.842   2.787   5.108  0.00  0.00    +0.000 C 
ATOM     12  F   UNL     1       5.619   3.754   4.544  0.00  0.00    +0.000 F 
ATOM     13  F   UNL     1       3.726   3.408   5.584  0.00  0.00    +0.000 F 
ATOM     14  F   UNL     1       5.527   2.396   6.227  0.00  0.00    +0.000 F 
ENDBRANCH  10  11
BRANCH   3  15
ATOM     15  C   UNL     1       2.304   4.832   1.329  0.00  0.00    +0.000 C 
ATOM     16  F   UNL     1       2.856   5.245   0.148  0.00  0.00    +0.000 F 
ATOM     17  F   UNL     1       0.954   4.959   1.152  0.00  0.00    +0.000 F 
ATOM     18  F   UNL     1       2.649   5.772   2.251  0.00  0.00    +0.000 F 
ENDBRANCH   3  15
BRANCH   1  19
ATOM     19  C   UNL     1       2.305   0.055  -0.024  0.00  0.00    +0.000 C 
BRANCH  19  20
ATOM     20  C   UNL     1       2.845   0.330  -1.484  0.00  0.00    +0.000 C 
ATOM     21  C   UNL     1       4.045  -0.576  -1.803  0.00  0.00    +0.000 C 
ATOM     22  C   UNL     1       4.573  -0.309  -3.214  0.00  0.00    +0.000 C 
ATOM     23  C   UNL     1       4.872   1.172  -3.415  0.00  0.00    +0.000 C 
ATOM     24  C   UNL     1       3.658   2.015  -3.079  0.00  0.00    +0.000 C 
ATOM     25  N   UNL     1       3.204   1.739  -1.732  0.00  0.00    +0.000 NA
ATOM     26  H   UNL     1       2.384   2.318  -1.583  0.00  0.00    +0.000 HD
ENDBRANCH  19  20
BRANCH  19  27
ATOM     27  O   UNL     1       0.869   0.070  -0.047  0.00  0.00    +0.000 OA
ATOM     28  H   UNL     1       0.586  -0.661  -0.621  0.00  0.00    +0.000 HD
ENDBRANCH  19  27
ENDBRANCH   1  19
TORSDOF 5
