REMARK  Name = Megestrol acetate
REMARK  8 active torsions:
REMARK  status: ('A' for Active; 'I' for Inactive)
REMARK    1  A    between atoms: C_5  and  O_6
REMARK    2  A    between atoms: C_5  and  C_10
REMARK    3  A    between atoms: O_6  and  C_7
REMARK    4  A    between atoms: C_7  and  C_8
REMARK    5  A    between atoms: C_10  and  C_11
REMARK    6  A    between atoms: C_13  and  C_14
REMARK    7  A    between atoms: C_22  and  C_23
REMARK    8  A    between atoms: C_30  and  C_31
REMARK                            x       y       z     vdW  Elec       q    Type
REMARK                         _______ _______ _______ _____ _____    ______ ____
ROOT
ATOM      1  C   UNL     1       1.955  -0.000   0.370  0.00  0.00    +0.000 C 
ATOM      2  C   UNL     1       2.300  -0.159   1.738  0.00  0.00    +0.000 C 
ATOM      3  C   UNL     1       3.322   0.264   0.774  0.00  0.00    +0.000 C 
ATOM      4  C   UNL     1       2.560   0.886  -1.088  0.00  0.00    +0.000 C 
ATOM      5  C   UNL     1       2.831   1.621   0.062  0.00  0.00    +0.000 C 
ATOM      6  C   UNL     1       1.995   2.720   0.621  0.00  0.00    +0.000 C 
ATOM      7  C   UNL     1       4.590   1.441  -0.531  0.00  0.00    +0.000 C 
ATOM      8  C   UNL     1       4.896   0.005  -1.388  0.00  0.00    +0.000 C 
ATOM      9  C   UNL     1       4.380  -1.413  -0.831  0.00  0.00    +0.000 C 
ATOM     10  C   UNL     1       2.743  -1.396  -0.635  0.00  0.00    +0.000 C 
ATOM     11  C   UNL     1       2.176  -2.672  -0.152  0.00  0.00    +0.000 C 
ATOM     12  C   UNL     1       2.828  -3.826  -0.185  0.00  0.00    +0.000 C 
ATOM     13  C   UNL     1       2.086  -5.036   0.280  0.00  0.00    +0.000 C 
ATOM     14  C   UNL     1       4.140  -3.939  -0.783  0.00  0.00    +0.000 C 
ATOM     15  C   UNL     1       4.813  -5.090  -0.690  0.00  0.00    +0.000 C 
ATOM     16  C   UNL     1       6.008  -5.110  -1.519  0.00  0.00    +0.000 C 
ATOM     17  O   UNL     1       6.023  -5.188  -2.744  0.00  0.00    +0.000 OA
ATOM     18  C   UNL     1       7.129  -4.505  -0.844  0.00  0.00    +0.000 C 
ATOM     19  C   UNL     1       6.532  -2.979  -1.292  0.00  0.00    +0.000 C 
ATOM     20  C   UNL     1       4.810  -2.753  -1.518  0.00  0.00    +0.000 C 
ATOM     21  C   UNL     1       4.192  -2.691  -2.952  0.00  0.00    +0.000 C 
ENDROOT
BRANCH   4  22
ATOM     22  C   UNL     1       2.734   2.268  -2.155  0.00  0.00    +0.000 C 
ATOM     23  C   UNL     1       3.440   3.629  -1.791  0.00  0.00    +0.000 C 
ATOM     24  O   UNL     1       2.246   2.231  -3.302  0.00  0.00    +0.000 OA
ENDBRANCH   4  22
BRANCH   4  25
ATOM     25  O   UNL     1       0.895   1.141  -1.351  0.00  0.00    +0.000 OA
BRANCH  25  26
ATOM     26  C   UNL     1      -0.268   0.387  -1.480  0.00  0.00    +0.000 C 
ATOM     27  C   UNL     1      -0.106  -1.051  -1.181  0.00  0.00    +0.000 C 
ATOM     28  O   UNL     1      -1.380   0.860  -1.648  0.00  0.00    +0.000 OA
ENDBRANCH  25  26
ENDBRANCH   4  25
TORSDOF 3
