REMARK  Name = Meglumine
REMARK  12 active torsions:
REMARK  status: ('A' for Active; 'I' for Inactive)
REMARK    1  A    between atoms: C_1  and  N_2
REMARK    2  A    between atoms: N_2  and  C_3
REMARK    3  A    between atoms: C_3  and  C_4
REMARK    4  A    between atoms: C_4  and  O_5
REMARK    5  A    between atoms: C_4  and  C_6
REMARK    6  A    between atoms: C_6  and  O_7
REMARK    7  A    between atoms: C_6  and  C_8
REMARK    8  A    between atoms: C_8  and  O_9
REMARK    9  A    between atoms: C_8  and  C_10
REMARK   10  A    between atoms: C_10  and  O_11
REMARK   11  A    between atoms: C_10  and  C_12
REMARK   12  A    between atoms: C_12  and  O_13
REMARK                            x       y       z     vdW  Elec       q    Type
REMARK                         _______ _______ _______ _____ _____    ______ ____
ROOT
ATOM      1  C   UNL     1       5.100  -1.411   4.484  0.00  0.00    +0.000 C 
ENDROOT
BRANCH   1   2
ATOM      2  O   UNL     1       4.066  -0.766   5.240  0.00  0.00    +0.000 OA
ATOM      3  H   UNL     1       3.906   0.102   4.827  0.00  0.00    +0.000 HD
ENDBRANCH   1   2
BRANCH   1   4
ATOM      4  C   UNL     1       4.793  -1.322   2.975  0.00  0.00    +0.000 C 
BRANCH   4   5
ATOM      5  O   UNL     1       4.464   0.026   2.609  0.00  0.00    +0.000 OA
ATOM      6  H   UNL     1       5.219   0.612   2.824  0.00  0.00    +0.000 HD
ENDBRANCH   4   5
BRANCH   4   7
ATOM      7  C   UNL     1       5.919  -2.002   2.145  0.00  0.00    +0.000 C 
BRANCH   7   9
ATOM      8  C   UNL     1       6.919  -2.369  -0.022  0.00  0.00    +0.000 C 
ATOM      9  N   UNL     1       5.785  -1.813   0.705  0.00  0.00    +0.000 NA
ATOM     10  H   UNL     1       4.920  -2.257   0.395  0.00  0.00    +0.000 HD
ENDBRANCH   7   9
ENDBRANCH   4   7
ENDBRANCH   1   4
BRANCH   1  11
ATOM     11  C   UNL     1       6.492  -0.925   4.974  0.00  0.00    +0.000 C 
BRANCH  11  12
ATOM     12  O   UNL     1       7.379  -2.058   5.000  0.00  0.00    +0.000 OA
ATOM     13  H   UNL     1       7.733  -2.257   4.123  0.00  0.00    +0.000 HD
ENDBRANCH  11  12
BRANCH  11  14
ATOM     14  C   UNL     1       7.146   0.373   4.374  0.00  0.00    +0.000 C 
BRANCH  14  15
ATOM     15  O   UNL     1       6.729   0.773   3.069  0.00  0.00    +0.000 OA
ATOM     16  H   UNL     1       7.147   0.237   2.365  0.00  0.00    +0.000 HD
ENDBRANCH  14  15
BRANCH  14  17
ATOM     17  C   UNL     1       8.679   0.369   4.421  0.00  0.00    +0.000 C 
BRANCH  17  18
ATOM     18  O   UNL     1       9.156   0.428   5.753  0.00  0.00    +0.000 OA
ATOM     19  H   UNL     1       8.763   1.214   6.171  0.00  0.00    +0.000 HD
ENDBRANCH  17  18
ENDBRANCH  14  17
ENDBRANCH  11  14
ENDBRANCH   1  11
TORSDOF 11
