REMARK  Name = Melatonin
REMARK  6 active torsions:
REMARK  status: ('A' for Active; 'I' for Inactive)
REMARK    1  A    between atoms: C_1  and  O_2
REMARK    2  A    between atoms: O_2  and  C_3
REMARK    3  A    between atoms: C_9  and  C_10
REMARK    4  A    between atoms: C_10  and  C_11
REMARK    5  A    between atoms: C_11  and  N_12
REMARK    6  A    between atoms: C_13  and  C_14
REMARK                            x       y       z     vdW  Elec       q    Type
REMARK                         _______ _______ _______ _____ _____    ______ ____
ROOT
ATOM      1  C   UNL     1       3.007  -1.225   0.239  0.00  0.00    +0.000 A 
ATOM      2  C   UNL     1       4.106  -1.239   1.086  0.00  0.00    +0.000 A 
ATOM      3  C   UNL     1       4.869  -2.408   1.300  0.00  0.00    +0.000 A 
ATOM      4  C   UNL     1       4.464  -3.563   0.635  0.00  0.00    +0.000 A 
ATOM      5  N   UNL     1       5.347  -4.559   0.986  0.00  0.00    +0.000 N 
ATOM      6  C   UNL     1       6.316  -4.064   1.821  0.00  0.00    +0.000 A 
ATOM      7  C   UNL     1       6.047  -2.730   2.067  0.00  0.00    +0.000 A 
ATOM      8  C   UNL     1       3.354  -3.580  -0.225  0.00  0.00    +0.000 A 
ATOM      9  C   UNL     1       2.644  -2.384  -0.425  0.00  0.00    +0.000 A 
ATOM     10  H   UNL     1       5.299  -5.513   0.656  0.00  0.00    +0.000 HD
ENDROOT
BRANCH   1  12
ATOM     11  C   UNL     1       1.010  -0.010   0.090  0.00  0.00    +0.000 C 
ATOM     12  O   UNL     1       2.431   0.003   0.070  0.00  0.00    +0.000 OA
ENDBRANCH   1  12
BRANCH   7  13
ATOM     13  C   UNL     1       6.867  -1.822   2.951  0.00  0.00    +0.000 C 
BRANCH  13  14
ATOM     14  C   UNL     1       6.297  -0.412   3.021  0.00  0.00    +0.000 C 
BRANCH  14  15
ATOM     15  N   UNL     1       6.981   0.544   3.843  0.00  0.00    +0.000 N 
ATOM     16  C   UNL     1       6.591   1.846   3.997  0.00  0.00    +0.000 C 
ATOM     17  C   UNL     1       5.352   2.349   3.286  0.00  0.00    +0.000 C 
ATOM     18  O   UNL     1       7.258   2.592   4.718  0.00  0.00    +0.000 OA
ATOM     19  H   UNL     1       7.823   0.281   4.339  0.00  0.00    +0.000 HD
ENDBRANCH  14  15
ENDBRANCH  13  14
ENDBRANCH   7  13
TORSDOF 4
