REMARK  Name = Meloxicam
REMARK  4 active torsions:
REMARK  status: ('A' for Active; 'I' for Inactive)
REMARK    1  A    between atoms: C_1  and  N_2
REMARK    2  A    between atoms: C_3  and  C_4
REMARK    3  A    between atoms: C_10  and  C_11
REMARK    4  A    between atoms: C_13  and  O_14
REMARK                            x       y       z     vdW  Elec       q    Type
REMARK                         _______ _______ _______ _____ _____    ______ ____
ROOT
ATOM      1  C   UNL     1       1.796  -0.677   1.977  0.00  0.00    +0.000 C 
ATOM      2  N   UNL     1       1.608  -0.893   0.522  0.00  0.00    +0.000 N 
ATOM      3  C   UNL     1       0.780  -2.034   0.107  0.00  0.00    +0.000 C 
ATOM      4  C   UNL     1      -0.529  -1.783  -0.145  0.00  0.00    +0.000 C 
ATOM      5  C   UNL     1      -1.152  -0.441  -0.023  0.00  0.00    +0.000 A 
ATOM      6  C   UNL     1      -0.402   0.733  -0.075  0.00  0.00    +0.000 A 
ATOM      7  C   UNL     1      -0.980   1.995   0.093  0.00  0.00    +0.000 A 
ATOM      8  C   UNL     1      -2.363   2.089   0.250  0.00  0.00    +0.000 A 
ATOM      9  C   UNL     1      -3.145   0.936   0.249  0.00  0.00    +0.000 A 
ATOM     10  C   UNL     1      -2.541  -0.316   0.128  0.00  0.00    +0.000 A 
ATOM     11  S   UNL     1       1.323   0.542  -0.358  0.00  0.00    +0.000 S 
ATOM     12  O   UNL     1       1.997   1.641   0.293  0.00  0.00    +0.000 OA
ATOM     13  O   UNL     1       1.486   0.276  -1.775  0.00  0.00    +0.000 OA
ENDROOT
BRANCH   3  14
ATOM     14  C   UNL     1       1.502  -3.388   0.046  0.00  0.00    +0.000 C 
ATOM     15  O   UNL     1       2.692  -3.427   0.357  0.00  0.00    +0.000 OA
ATOM     16  N   UNL     1       0.793  -4.487  -0.418  0.00  0.00    +0.000 N 
ATOM     17  C   UNL     1       1.371  -5.737  -0.421  0.00  0.00    +0.000 A 
ATOM     18  N   UNL     1       2.213  -6.251   0.436  0.00  0.00    +0.000 NA
ATOM     19  C   UNL     1       2.521  -7.542   0.055  0.00  0.00    +0.000 A 
ATOM     20  C   UNL     1       1.931  -7.986  -1.113  0.00  0.00    +0.000 A 
ATOM     21  C   UNL     1       2.129  -9.279  -1.824  0.00  0.00    +0.000 C 
ATOM     22  S   UNL     1       0.853  -6.773  -1.684  0.00  0.00    +0.000 S 
ATOM     23  H   UNL     1       0.004  -4.408  -1.036  0.00  0.00    +0.000 HD
ENDBRANCH   3  14
BRANCH   4  24
ATOM     24  O   UNL     1      -1.454  -2.731  -0.538  0.00  0.00    +0.000 OA
ATOM     25  H   UNL     1      -1.257  -3.584  -0.130  0.00  0.00    +0.000 HD
ENDBRANCH   4  24
TORSDOF 2
