REMARK  Name = Melphalan
REMARK  10 active torsions:
REMARK  status: ('A' for Active; 'I' for Inactive)
REMARK    1  A    between atoms: N_1  and  CA_2
REMARK    2  A    between atoms: CA_2  and  C_3
REMARK    3  A    between atoms: CA_2  and  C_17
REMARK    4  A    between atoms: C_3  and  C_4
REMARK    5  A    between atoms: C_7  and  N_10
REMARK    6  A    between atoms: N_10  and  C_11
REMARK    7  A    between atoms: N_10  and  C_14
REMARK    8  A    between atoms: C_11  and  C_12
REMARK    9  A    between atoms: C_14  and  C_15
REMARK   10  A    between atoms: C_17  and  O_18
REMARK                            x       y       z     vdW  Elec       q    Type
REMARK                         _______ _______ _______ _____ _____    ______ ____
ROOT
ATOM      1  C   UNL     1       2.448  -0.802   2.400  0.00  0.00    +0.000 A 
ATOM      2  C   UNL     1       2.455   0.507   2.802  0.00  0.00    +0.000 A 
ATOM      3  C   UNL     1       2.264   0.813   4.129  0.00  0.00    +0.000 A 
ATOM      4  C   UNL     1       1.871  -0.072   5.133  0.00  0.00    +0.000 A 
ATOM      5  C   UNL     1       1.849  -1.406   4.693  0.00  0.00    +0.000 A 
ATOM      6  C   UNL     1       2.149  -1.770   3.357  0.00  0.00    +0.000 A 
ENDROOT
BRANCH   1   7
ATOM      7  C   UNL     1       2.904  -1.109   1.004  0.00  0.00    +0.000 C 
BRANCH   7   8
ATOM      8  CA  UNL     1       2.395  -0.097  -0.043  0.00  0.00    +0.000 C 
BRANCH   8   9
ATOM      9  N   UNL     1       0.897  -0.081  -0.099  0.00  0.00    +0.000 NA
ATOM     10  H1  UNL     1       0.585   0.256   0.825  0.00  0.00    +0.000 HD
ATOM     11  H2  UNL     1       0.566  -1.050  -0.082  0.00  0.00    +0.000 HD
ENDBRANCH   8   9
BRANCH   8  12
ATOM     12  C   UNL     1       2.991  -0.446  -1.397  0.00  0.00    +0.000 C 
ATOM     13  OXT UNL     1       4.198  -0.516  -1.615  0.00  0.00    +0.000 OA
BRANCH  12  14
ATOM     14  O   UNL     1       2.054  -0.677  -2.344  0.00  0.00    +0.000 OA
ATOM     15  H   UNL     1       1.175  -0.460  -1.952  0.00  0.00    +0.000 HD
ENDBRANCH  12  14
ENDBRANCH   8  12
ENDBRANCH   7   8
ENDBRANCH   1   7
BRANCH   4  16
ATOM     16  N   UNL     1       1.560   0.332   6.435  0.00  0.00    +0.000 N 
BRANCH  16  17
ATOM     17  C   UNL     1       1.456   1.753   6.917  0.00  0.00    +0.000 C 
BRANCH  17  18
ATOM     18  C   UNL     1       1.875   2.873   5.988  0.00  0.00    +0.000 C 
ATOM     19 CL   UNL     1       1.743   4.512   6.634  0.00  0.00    +0.000 Cl
ENDBRANCH  17  18
ENDBRANCH  16  17
BRANCH  16  20
ATOM     20  C   UNL     1       1.083  -0.714   7.398  0.00  0.00    +0.000 C 
BRANCH  20  21
ATOM     21  C   UNL     1       0.664  -0.177   8.775  0.00  0.00    +0.000 C 
ATOM     22 CL   UNL     1       0.168  -1.479   9.879  0.00  0.00    +0.000 Cl
ENDBRANCH  20  21
ENDBRANCH  16  20
ENDBRANCH   4  16
TORSDOF 10
