REMARK  Name = Melphalan flufenamide
REMARK  16 active torsions:
REMARK  status: ('A' for Active; 'I' for Inactive)
REMARK    1  A    between atoms: C_1  and  C_2
REMARK    2  A    between atoms: C_2  and  O_3
REMARK    3  A    between atoms: O_3  and  C_4
REMARK    4  A    between atoms: C_4  and  C_6
REMARK    5  A    between atoms: C_6  and  C_7
REMARK    6  A    between atoms: C_6  and  N_15
REMARK    7  A    between atoms: C_7  and  C_8
REMARK    8  A    between atoms: C_16  and  C_18
REMARK    9  A    between atoms: C_18  and  N_19
REMARK   10  A    between atoms: C_18  and  C_20
REMARK   11  A    between atoms: C_20  and  C_21
REMARK   12  A    between atoms: C_24  and  N_27
REMARK   13  A    between atoms: N_27  and  C_28
REMARK   14  A    between atoms: N_27  and  C_31
REMARK   15  A    between atoms: C_28  and  C_29
REMARK   16  A    between atoms: C_31  and  C_32
REMARK                            x       y       z     vdW  Elec       q    Type
REMARK                         _______ _______ _______ _____ _____    ______ ____
ROOT
ATOM      1  N   UNL     1       6.406  -2.769   1.121  0.00  0.00    +0.000 N 
ATOM      2  C   UNL     1       6.995  -3.774   1.882  0.00  0.00    +0.000 C 
ATOM      3  O   UNL     1       6.375  -4.604   2.542  0.00  0.00    +0.000 OA
ATOM      4  H   UNL     1       6.947  -1.943   0.902  0.00  0.00    +0.000 HD
ENDROOT
BRANCH   1   5
ATOM      5  C   UNL     1       4.969  -2.736   1.160  0.00  0.00    +0.000 C 
BRANCH   5   6
ATOM      6  C   UNL     1       4.354  -3.908   0.346  0.00  0.00    +0.000 C 
ATOM      7  O   UNL     1       3.204  -3.936  -0.099  0.00  0.00    +0.000 OA
BRANCH   6   8
ATOM      8  O   UNL     1       5.220  -4.944   0.228  0.00  0.00    +0.000 OA
BRANCH   8  10
ATOM      9  C   UNL     1       5.807  -7.172  -0.304  0.00  0.00    +0.000 C 
ATOM     10  C   UNL     1       4.726  -6.115  -0.411  0.00  0.00    +0.000 C 
ENDBRANCH   8  10
ENDBRANCH   6   8
ENDBRANCH   5   6
BRANCH   5  11
ATOM     11  C   UNL     1       4.311  -1.419   0.738  0.00  0.00    +0.000 C 
BRANCH  11  12
ATOM     12  C   UNL     1       2.914  -1.299   1.344  0.00  0.00    +0.000 A 
ATOM     13  C   UNL     1       2.440  -2.224   2.306  0.00  0.00    +0.000 A 
ATOM     14  C   UNL     1       1.168  -2.154   2.842  0.00  0.00    +0.000 A 
ATOM     15  C   UNL     1       0.337  -1.139   2.428  0.00  0.00    +0.000 A 
ATOM     16  F   UNL     1      -0.894  -1.065   2.944  0.00  0.00    +0.000 F 
ATOM     17  C   UNL     1       0.762  -0.205   1.485  0.00  0.00    +0.000 A 
ATOM     18  C   UNL     1       2.049  -0.280   0.937  0.00  0.00    +0.000 A 
ENDBRANCH  11  12
ENDBRANCH   5  11
ENDBRANCH   1   5
BRANCH   2  19
ATOM     19  C   UNL     1       8.490  -3.679   1.869  0.00  0.00    +0.000 C 
BRANCH  19  20
ATOM     20  N   UNL     1       8.843  -2.479   2.649  0.00  0.00    +0.000 NA
ATOM     21  H   UNL     1       8.557  -2.593   3.620  0.00  0.00    +0.000 HD
ATOM     22  H   UNL     1       8.482  -1.622   2.258  0.00  0.00    +0.000 HD
ENDBRANCH  19  20
BRANCH  19  23
ATOM     23  C   UNL     1       9.057  -4.962   2.458  0.00  0.00    +0.000 C 
BRANCH  23  24
ATOM     24  C   UNL     1      10.550  -4.965   2.436  0.00  0.00    +0.000 A 
ATOM     25  C   UNL     1      11.174  -6.174   2.495  0.00  0.00    +0.000 A 
ATOM     26  C   UNL     1      12.537  -6.184   2.725  0.00  0.00    +0.000 A 
ATOM     27  C   UNL     1      13.399  -5.069   2.720  0.00  0.00    +0.000 A 
ATOM     28  C   UNL     1      12.726  -3.861   2.634  0.00  0.00    +0.000 A 
ATOM     29  C   UNL     1      11.346  -3.817   2.500  0.00  0.00    +0.000 A 
BRANCH  27  30
ATOM     30  N   UNL     1      14.790  -5.119   2.809  0.00  0.00    +0.000 N 
BRANCH  30  31
ATOM     31  C   UNL     1      15.609  -6.362   2.761  0.00  0.00    +0.000 C 
BRANCH  31  32
ATOM     32  C   UNL     1      14.887  -7.689   2.816  0.00  0.00    +0.000 C 
ATOM     33 CL   UNL     1      15.915  -9.124   2.795  0.00  0.00    +0.000 Cl
ENDBRANCH  31  32
ENDBRANCH  30  31
BRANCH  30  34
ATOM     34  C   UNL     1      15.543  -3.822   2.690  0.00  0.00    +0.000 C 
BRANCH  34  35
ATOM     35  C   UNL     1      17.068  -3.971   2.672  0.00  0.00    +0.000 C 
ATOM     36 CL   UNL     1      17.898  -2.401   2.604  0.00  0.00    +0.000 Cl
ENDBRANCH  34  35
ENDBRANCH  30  34
ENDBRANCH  27  30
ENDBRANCH  23  24
ENDBRANCH  19  23
ENDBRANCH   2  19
TORSDOF 15
