REMARK  Name = Memantine
REMARK  3 active torsions:
REMARK  status: ('A' for Active; 'I' for Inactive)
REMARK    1  A    between atoms: C_1  and  C_2
REMARK    2  A    between atoms: C_6  and  C_7
REMARK    3  A    between atoms: C_10  and  N_11
REMARK                            x       y       z     vdW  Elec       q    Type
REMARK                         _______ _______ _______ _____ _____    ______ ____
ROOT
ATOM      1  C   UNL     1       1.051  -0.007   0.056  0.00  0.00    +0.000 C 
ATOM      2  C   UNL     1       2.582  -0.009   0.057  0.00  0.00    +0.000 C 
ATOM      3  C   UNL     1       3.117   0.866   1.213  0.00  0.00    +0.000 C 
ATOM      4  C   UNL     1       4.654   0.868   1.217  0.00  0.00    +0.000 C 
ATOM      5  C   UNL     1       5.164   1.430  -0.120  0.00  0.00    +0.000 C 
ATOM      6  C   UNL     1       4.660   0.564  -1.296  0.00  0.00    +0.000 C 
ATOM      7  C   UNL     1       5.169   1.128  -2.626  0.00  0.00    +0.000 C 
ATOM      8  C   UNL     1       3.114   0.556  -1.280  0.00  0.00    +0.000 C 
ATOM      9  C   UNL     1       5.166  -0.884  -1.102  0.00  0.00    +0.000 C 
ATOM     10  C   UNL     1       4.657  -1.458   0.238  0.00  0.00    +0.000 C 
ATOM     11  C   UNL     1       5.165  -0.572   1.393  0.00  0.00    +0.000 C 
ATOM     12  C   UNL     1       3.114  -1.450   0.235  0.00  0.00    +0.000 C 
ENDROOT
BRANCH  10  13
ATOM     13  N   UNL     1       5.140  -2.827   0.418  0.00  0.00    +0.000 NA
ATOM     14  H   UNL     1       6.159  -2.841   0.389  0.00  0.00    +0.000 HD
ATOM     15  H   UNL     1       4.827  -3.409  -0.359  0.00  0.00    +0.000 HD
ENDBRANCH  10  13
TORSDOF 1
