REMARK  Name = Menadione
REMARK  1 active torsions:
REMARK  status: ('A' for Active; 'I' for Inactive)
REMARK    1  A    between atoms: C_1  and  C_2
REMARK                            x       y       z     vdW  Elec       q    Type
REMARK                         _______ _______ _______ _____ _____    ______ ____
ROOT
ATOM      1  C   UNL     1      -3.517   0.305   0.004  0.00  0.00    +0.000 C 
ATOM      2  C   UNL     1      -2.067  -0.062   0.019  0.00  0.00    +0.000 C 
ATOM      3  C   UNL     1      -1.641  -1.330   0.054  0.00  0.00    +0.000 C 
ATOM      4  C   UNL     1      -0.212  -1.692   0.013  0.00  0.00    +0.000 C 
ATOM      5  O   UNL     1       0.125  -2.868  -0.010  0.00  0.00    +0.000 OA
ATOM      6  C   UNL     1       0.773  -0.596  -0.004  0.00  0.00    +0.000 A 
ATOM      7  C   UNL     1       2.141  -0.896  -0.004  0.00  0.00    +0.000 A 
ATOM      8  C   UNL     1       3.079   0.137   0.011  0.00  0.00    +0.000 A 
ATOM      9  C   UNL     1       2.655   1.466   0.013  0.00  0.00    +0.000 A 
ATOM     10  C   UNL     1       1.292   1.765  -0.004  0.00  0.00    +0.000 A 
ATOM     11  C   UNL     1       0.347   0.731  -0.009  0.00  0.00    +0.000 A 
ATOM     12  C   UNL     1      -1.093   1.062  -0.014  0.00  0.00    +0.000 C 
ATOM     13  O   UNL     1      -1.469   2.228  -0.034  0.00  0.00    +0.000 OA
ENDROOT
TORSDOF 0
