REMARK  Name = Menadiol diphosphate
REMARK  9 active torsions:
REMARK  status: ('A' for Active; 'I' for Inactive)
REMARK    1  A    between atoms: C_1  and  C_2
REMARK    2  A    between atoms: C_3  and  O_4
REMARK    3  A    between atoms: O_4  and  P_5
REMARK    4  A    between atoms: P_5  and  O_6
REMARK    5  A    between atoms: P_5  and  O_7
REMARK    6  A    between atoms: C_15  and  O_16
REMARK    7  A    between atoms: O_16  and  P_17
REMARK    8  A    between atoms: P_17  and  O_18
REMARK    9  A    between atoms: P_17  and  O_19
REMARK                            x       y       z     vdW  Elec       q    Type
REMARK                         _______ _______ _______ _____ _____    ______ ____
ROOT
ATOM      1  C   UNL     1      -3.715  -0.387  -0.348  0.00  0.00    +0.000 C 
ATOM      2  C   UNL     1      -2.211  -0.191  -0.373  0.00  0.00    +0.000 A 
ATOM      3  C   UNL     1      -1.151  -1.097  -0.181  0.00  0.00    +0.000 A 
ATOM      4  C   UNL     1       0.196  -0.615  -0.090  0.00  0.00    +0.000 A 
ATOM      5  C   UNL     1       1.307  -1.476  -0.002  0.00  0.00    +0.000 A 
ATOM      6  C   UNL     1       2.620  -1.002   0.031  0.00  0.00    +0.000 A 
ATOM      7  C   UNL     1       2.859   0.371   0.030  0.00  0.00    +0.000 A 
ATOM      8  C   UNL     1       1.786   1.258   0.002  0.00  0.00    +0.000 A 
ATOM      9  C   UNL     1       0.454   0.811  -0.089  0.00  0.00    +0.000 A 
ATOM     10  C   UNL     1      -0.623   1.699  -0.217  0.00  0.00    +0.000 A 
ATOM     11  C   UNL     1      -1.890   1.175  -0.468  0.00  0.00    +0.000 A 
ENDROOT
BRANCH   3  12
ATOM     12  O   UNL     1      -1.313  -2.489  -0.058  0.00  0.00    +0.000 OA
BRANCH  12  13
ATOM     13  P   UNL     1      -2.929  -3.105  -0.078  0.00  0.00    +0.000 P 
ATOM     14  O   UNL     1      -4.376  -3.657  -0.096  0.00  0.00    +0.000 OA
BRANCH  13  15
ATOM     15  O   UNL     1      -2.180  -4.543   0.177  0.00  0.00    +0.000 OA
ATOM     16  H   UNL     1      -1.500  -4.414   0.863  0.00  0.00    +0.000 HD
ENDBRANCH  13  15
BRANCH  13  17
ATOM     17  O   UNL     1      -2.968  -2.693   1.520  0.00  0.00    +0.000 OA
ATOM     18  H   UNL     1      -2.854  -1.736   1.665  0.00  0.00    +0.000 HD
ENDBRANCH  13  17
ENDBRANCH  12  13
ENDBRANCH   3  12
BRANCH  10  19
ATOM     19  O   UNL     1      -0.458   3.083   0.005  0.00  0.00    +0.000 OA
BRANCH  19  20
ATOM     20  P   UNL     1      -1.824   4.144   0.014  0.00  0.00    +0.000 P 
ATOM     21  O   UNL     1      -3.047   5.094   0.023  0.00  0.00    +0.000 OA
BRANCH  20  22
ATOM     22  O   UNL     1      -2.574   3.108   1.061  0.00  0.00    +0.000 OA
ATOM     23  H   UNL     1      -2.000   2.771   1.764  0.00  0.00    +0.000 HD
ENDBRANCH  20  22
BRANCH  20  24
ATOM     24  O   UNL     1      -1.040   4.948   1.215  0.00  0.00    +0.000 OA
ATOM     25  H   UNL     1      -0.114   4.668   1.305  0.00  0.00    +0.000 HD
ENDBRANCH  20  24
ENDBRANCH  19  20
ENDBRANCH  10  19
TORSDOF 8
