REMARK  Name = Menthyl salicylate
REMARK  8 active torsions:
REMARK  status: ('A' for Active; 'I' for Inactive)
REMARK    1  A    between atoms: C_1  and  C_2
REMARK    2  A    between atoms: C_2  and  C_3
REMARK    3  A    between atoms: C_2  and  C_4
REMARK    4  A    between atoms: C_7  and  C_8
REMARK    5  A    between atoms: C_10  and  O_11
REMARK    6  A    between atoms: O_11  and  C_12
REMARK    7  A    between atoms: C_12  and  C_14
REMARK    8  A    between atoms: C_19  and  O_20
REMARK                            x       y       z     vdW  Elec       q    Type
REMARK                         _______ _______ _______ _____ _____    ______ ____
ROOT
ATOM      1  O   UNL     1       5.255  -1.234  -0.578  0.00  0.00    +0.000 OA
ENDROOT
BRANCH   1   8
ATOM      2  C   UNL     1       2.847  -1.251   0.640  0.00  0.00    +0.000 C 
ATOM      3  C   UNL     1       1.931  -2.548   0.013  0.00  0.00    +0.000 C 
ATOM      4  C   UNL     1       2.641  -4.054   0.924  0.00  0.00    +0.000 C 
ATOM      5  C   UNL     1       4.569  -3.446   0.692  0.00  0.00    +0.000 C 
ATOM      6  C   UNL     1       4.848  -3.529  -1.384  0.00  0.00    +0.000 C 
ATOM      7  C   UNL     1       5.105  -2.253   1.480  0.00  0.00    +0.000 C 
ATOM      8  C   UNL     1       4.518  -1.190   0.676  0.00  0.00    +0.000 C 
BRANCH   2  10
ATOM      9  C   UNL     1       2.362  -2.570   2.836  0.00  0.00    +0.000 C 
ATOM     10  C   UNL     1       2.393  -1.224   2.115  0.00  0.00    +0.000 C 
ATOM     11  C   UNL     1       0.960  -0.753   2.099  0.00  0.00    +0.000 C 
ENDBRANCH   2  10
ENDBRANCH   1   8
BRANCH   1  12
ATOM     12  C   UNL     1       6.288  -2.180  -0.978  0.00  0.00    +0.000 C 
ATOM     13  O   UNL     1       6.582  -2.021  -2.185  0.00  0.00    +0.000 OA
BRANCH  12  14
ATOM     14  C   UNL     1       6.385  -3.924  -0.214  0.00  0.00    +0.000 A 
ATOM     15  C   UNL     1       7.488  -4.614  -0.332  0.00  0.00    +0.000 A 
ATOM     16  C   UNL     1       7.240  -5.898   0.186  0.00  0.00    +0.000 A 
ATOM     17  C   UNL     1       5.984  -6.509   0.815  0.00  0.00    +0.000 A 
ATOM     18  C   UNL     1       4.709  -6.081   0.642  0.00  0.00    +0.000 A 
ATOM     19  C   UNL     1       4.951  -5.042  -0.201  0.00  0.00    +0.000 A 
BRANCH  19  20
ATOM     20  O   UNL     1       3.472  -4.079  -0.659  0.00  0.00    +0.000 OA
ATOM     21  H   UNL     1       3.469  -3.048  -0.181  0.00  0.00    +0.000 HD
ENDBRANCH  19  20
ENDBRANCH  12  14
ENDBRANCH   1  12
TORSDOF 5
