REMARK  Name = Menthol
REMARK  5 active torsions:
REMARK  status: ('A' for Active; 'I' for Inactive)
REMARK    1  A    between atoms: C_1  and  C_2
REMARK    2  A    between atoms: C_2  and  C_3
REMARK    3  A    between atoms: C_2  and  C_4
REMARK    4  A    between atoms: C_7  and  C_8
REMARK    5  A    between atoms: C_10  and  O_11
REMARK                            x       y       z     vdW  Elec       q    Type
REMARK                         _______ _______ _______ _____ _____    ______ ____
ROOT
ATOM      1  C   UNL     1       2.985   1.230   0.564  0.00  0.00    +0.000 C 
ATOM      2  C   UNL     1       4.491   0.956   0.741  0.00  0.00    +0.000 C 
ATOM      3  C   UNL     1       5.166   0.846  -0.611  0.00  0.00    +0.000 C 
ATOM      4  C   UNL     1       4.833   2.055  -1.528  0.00  0.00    +0.000 C 
ATOM      5  C   UNL     1       5.824   3.149  -1.142  0.00  0.00    +0.000 C 
ATOM      6  C   UNL     1       3.393   2.647  -1.486  0.00  0.00    +0.000 C 
ATOM      7  C   UNL     1       2.741   2.592  -0.113  0.00  0.00    +0.000 C 
ENDROOT
BRANCH   1   9
ATOM      8  C   UNL     1       0.782   0.060   0.044  0.00  0.00    +0.000 C 
ATOM      9  C   UNL     1       2.295   0.002  -0.145  0.00  0.00    +0.000 C 
ATOM     10  C   UNL     1       2.481  -0.278  -1.658  0.00  0.00    +0.000 C 
ENDBRANCH   1   9
BRANCH   7  11
ATOM     11  O   UNL     1       3.197   3.685   0.683  0.00  0.00    +0.000 OA
ATOM     12  H   UNL     1       4.129   3.538   0.941  0.00  0.00    +0.000 HD
ENDBRANCH   7  11
TORSDOF 2
