REMARK  Name = Mepenzolate
REMARK  8 active torsions:
REMARK  status: ('A' for Active; 'I' for Inactive)
REMARK    1  A    between atoms: C_1  and  N_2
REMARK    2  A    between atoms: N_2  and  C_3
REMARK    3  A    between atoms: C_7  and  O_9
REMARK    4  A    between atoms: O_9  and  C_10
REMARK    5  A    between atoms: C_10  and  C_12
REMARK    6  A    between atoms: C_12  and  O_13
REMARK    7  A    between atoms: C_12  and  C_14
REMARK    8  A    between atoms: C_12  and  C_20
REMARK                            x       y       z     vdW  Elec       q    Type
REMARK                         _______ _______ _______ _____ _____    ______ ____
ROOT
ATOM      1  C   UNL     1       2.212   4.919   0.347  0.00  0.00    +0.000 C 
ENDROOT
BRANCH   1   2
ATOM      2  C   UNL     1       3.669   4.911  -0.221  0.00  0.00    +0.000 A 
ATOM      3  C   UNL     1       4.400   3.722  -0.410  0.00  0.00    +0.000 A 
ATOM      4  C   UNL     1       5.747   3.731  -0.793  0.00  0.00    +0.000 A 
ATOM      5  C   UNL     1       6.406   4.928  -1.032  0.00  0.00    +0.000 A 
ATOM      6  C   UNL     1       5.718   6.113  -0.890  0.00  0.00    +0.000 A 
ATOM      7  C   UNL     1       4.373   6.088  -0.536  0.00  0.00    +0.000 A 
ENDBRANCH   1   2
BRANCH   1   8
ATOM      8  C   UNL     1       1.393   6.218   0.084  0.00  0.00    +0.000 A 
ATOM      9  C   UNL     1       1.904   7.497   0.397  0.00  0.00    +0.000 A 
ATOM     10  C   UNL     1       1.273   8.675  -0.013  0.00  0.00    +0.000 A 
ATOM     11  C   UNL     1       0.027   8.615  -0.613  0.00  0.00    +0.000 A 
ATOM     12  C   UNL     1      -0.587   7.384  -0.771  0.00  0.00    +0.000 A 
ATOM     13  C   UNL     1       0.086   6.212  -0.427  0.00  0.00    +0.000 A 
ENDBRANCH   1   8
BRANCH   1  14
ATOM     14  C   UNL     1       1.459   3.617  -0.166  0.00  0.00    +0.000 C 
ATOM     15  O   UNL     1       0.591   3.552  -1.022  0.00  0.00    +0.000 OA
BRANCH  14  16
ATOM     16  O   UNL     1       1.908   2.454   0.441  0.00  0.00    +0.000 OA
BRANCH  16  23
ATOM     17  C   UNL     1      -2.230  -0.022   0.772  0.00  0.00    +0.000 C 
ATOM     18  N   UNL     1      -0.901  -0.037   0.015  0.00  0.00    +0.000 N 
ATOM     19  C   UNL     1      -1.215  -0.019  -1.483  0.00  0.00    +0.000 C 
ATOM     20  C   UNL     1      -0.106  -1.276   0.418  0.00  0.00    +0.000 C 
ATOM     21  C   UNL     1       1.305  -1.242  -0.164  0.00  0.00    +0.000 C 
ATOM     22  C   UNL     1       2.053   0.022   0.261  0.00  0.00    +0.000 C 
ATOM     23  C   UNL     1       1.278   1.282  -0.122  0.00  0.00    +0.000 C 
ATOM     24  C   UNL     1      -0.154   1.220   0.425  0.00  0.00    +0.000 C 
ENDBRANCH  16  23
ENDBRANCH  14  16
ENDBRANCH   1  14
BRANCH   1  25
ATOM     25  O   UNL     1       2.268   4.832   1.787  0.00  0.00    +0.000 OA
ATOM     26  H   UNL     1       2.928   4.162   2.024  0.00  0.00    +0.000 HD
ENDBRANCH   1  25
TORSDOF 6
