REMARK  Name = Mephenesin
REMARK  7 active torsions:
REMARK  status: ('A' for Active; 'I' for Inactive)
REMARK    1  A    between atoms: C_1  and  C_2
REMARK    2  A    between atoms: C_7  and  O_8
REMARK    3  A    between atoms: O_8  and  C_9
REMARK    4  A    between atoms: C_9  and  C_10
REMARK    5  A    between atoms: C_10  and  O_11
REMARK    6  A    between atoms: C_10  and  C_12
REMARK    7  A    between atoms: C_12  and  O_13
REMARK                            x       y       z     vdW  Elec       q    Type
REMARK                         _______ _______ _______ _____ _____    ______ ____
ROOT
ATOM      1  O   UNL     1       0.916   2.460  -0.029  0.00  0.00    +0.000 OA
ENDROOT
BRANCH   1   8
ATOM      2  C   UNL     1       2.522  -0.282  -0.018  0.00  0.00    +0.000 C 
ATOM      3  C   UNL     1       1.035  -0.059  -0.004  0.00  0.00    +0.000 A 
ATOM      4  C   UNL     1       0.253  -1.234   0.004  0.00  0.00    +0.000 A 
ATOM      5  C   UNL     1      -1.136  -1.192   0.001  0.00  0.00    +0.000 A 
ATOM      6  C   UNL     1      -1.784   0.035  -0.004  0.00  0.00    +0.000 A 
ATOM      7  C   UNL     1      -1.031   1.214  -0.006  0.00  0.00    +0.000 A 
ATOM      8  C   UNL     1       0.375   1.191  -0.010  0.00  0.00    +0.000 A 
ENDBRANCH   1   8
BRANCH   1   9
ATOM      9  C   UNL     1       2.332   2.562  -0.000  0.00  0.00    +0.000 C 
BRANCH   9  10
ATOM     10  C   UNL     1       2.865   3.994   0.008  0.00  0.00    +0.000 C 
BRANCH  10  11
ATOM     11  O   UNL     1       2.430   4.689   1.179  0.00  0.00    +0.000 OA
ATOM     12  H   UNL     1       2.726   4.186   1.957  0.00  0.00    +0.000 HD
ENDBRANCH  10  11
BRANCH  10  13
ATOM     13  C   UNL     1       4.407   3.921  -0.018  0.00  0.00    +0.000 C 
BRANCH  13  14
ATOM     14  O   UNL     1       5.006   5.209  -0.057  0.00  0.00    +0.000 OA
ATOM     15  H   UNL     1       4.547   5.726  -0.741  0.00  0.00    +0.000 HD
ENDBRANCH  13  14
ENDBRANCH  10  13
ENDBRANCH   9  10
ENDBRANCH   1   9
TORSDOF 6
