REMARK  Name = Mephenytoin
REMARK  4 active torsions:
REMARK  status: ('A' for Active; 'I' for Inactive)
REMARK    1  A    between atoms: C_1  and  C_2
REMARK    2  A    between atoms: C_2  and  C_3
REMARK    3  A    between atoms: C_3  and  C_11
REMARK    4  A    between atoms: N_7  and  C_8
REMARK                            x       y       z     vdW  Elec       q    Type
REMARK                         _______ _______ _______ _____ _____    ______ ____
ROOT
ATOM      1  C   UNL     1       2.983   1.451   0.373  0.00  0.00    +0.000 C 
ATOM      2  N   UNL     1       2.684   2.572  -0.491  0.00  0.00    +0.000 N 
ATOM      3  C   UNL     1       2.755   3.743   0.240  0.00  0.00    +0.000 C 
ATOM      4  O   UNL     1       3.054   4.832  -0.235  0.00  0.00    +0.000 OA
ATOM      5  N   UNL     1       2.449   3.441   1.529  0.00  0.00    +0.000 N 
ATOM      6  C   UNL     1       2.049   4.397   2.532  0.00  0.00    +0.000 C 
ATOM      7  C   UNL     1       2.438   2.076   1.686  0.00  0.00    +0.000 C 
ATOM      8  O   UNL     1       2.131   1.468   2.702  0.00  0.00    +0.000 OA
ATOM      9  H   UNL     1       2.796   2.578  -1.495  0.00  0.00    +0.000 HD
ENDROOT
BRANCH   1  10
ATOM     10  C   UNL     1       4.492   1.198   0.488  0.00  0.00    +0.000 A 
ATOM     11  C   UNL     1       5.418   1.761  -0.403  0.00  0.00    +0.000 A 
ATOM     12  C   UNL     1       6.740   1.325  -0.408  0.00  0.00    +0.000 A 
ATOM     13  C   UNL     1       7.170   0.381   0.522  0.00  0.00    +0.000 A 
ATOM     14  C   UNL     1       6.274  -0.158   1.439  0.00  0.00    +0.000 A 
ATOM     15  C   UNL     1       4.948   0.253   1.427  0.00  0.00    +0.000 A 
ENDBRANCH   1  10
BRANCH   1  17
ATOM     16  C   UNL     1       0.863   0.080  -0.098  0.00  0.00    +0.000 C 
ATOM     17  C   UNL     1       2.371   0.119  -0.081  0.00  0.00    +0.000 C 
ENDBRANCH   1  17
TORSDOF 2
