REMARK  Name = Mephentermine
REMARK  6 active torsions:
REMARK  status: ('A' for Active; 'I' for Inactive)
REMARK    1  A    between atoms: C_1  and  N_2
REMARK    2  A    between atoms: N_2  and  C_3
REMARK    3  A    between atoms: C_3  and  C_4
REMARK    4  A    between atoms: C_3  and  C_5
REMARK    5  A    between atoms: C_3  and  C_6
REMARK    6  A    between atoms: C_6  and  C_7
REMARK                            x       y       z     vdW  Elec       q    Type
REMARK                         _______ _______ _______ _____ _____    ______ ____
ROOT
ATOM      1  C   UNL     1       4.522   0.869  -1.222  0.00  0.00    +0.000 C 
ENDROOT
BRANCH   1   2
ATOM      2  C   UNL     1       5.141   1.700  -2.337  0.00  0.00    +0.000 A 
ATOM      3  C   UNL     1       5.846   1.119  -3.396  0.00  0.00    +0.000 A 
ATOM      4  C   UNL     1       6.271   1.909  -4.473  0.00  0.00    +0.000 A 
ATOM      5  C   UNL     1       5.914   3.256  -4.540  0.00  0.00    +0.000 A 
ATOM      6  C   UNL     1       5.233   3.843  -3.487  0.00  0.00    +0.000 A 
ATOM      7  C   UNL     1       4.935   3.086  -2.358  0.00  0.00    +0.000 A 
ENDBRANCH   1   2
BRANCH   1   8
ATOM      8  C   UNL     1       2.940   0.831  -1.235  0.00  0.00    +0.000 C 
ATOM      9  C   UNL     1       2.479   0.187  -2.559  0.00  0.00    +0.000 C 
ATOM     10  C   UNL     1       2.339   2.247  -1.105  0.00  0.00    +0.000 C 
BRANCH   8  12
ATOM     11  C   UNL     1       1.028  -0.076   0.063  0.00  0.00    +0.000 C 
ATOM     12  N   UNL     1       2.481   0.019  -0.075  0.00  0.00    +0.000 NA
ATOM     13  H   UNL     1       2.865  -0.923  -0.145  0.00  0.00    +0.000 HD
ENDBRANCH   8  12
ENDBRANCH   1   8
TORSDOF 3
