REMARK  Name = Mepivacaine
REMARK  5 active torsions:
REMARK  status: ('A' for Active; 'I' for Inactive)
REMARK    1  A    between atoms: C_1  and  N_2
REMARK    2  A    between atoms: C_7  and  C_8
REMARK    3  A    between atoms: N_10  and  C_11
REMARK    4  A    between atoms: C_12  and  C_13
REMARK    5  A    between atoms: C_17  and  C_18
REMARK                            x       y       z     vdW  Elec       q    Type
REMARK                         _______ _______ _______ _____ _____    ______ ____
ROOT
ATOM      1  C   UNL     1      -0.417  -1.204  -1.818  0.00  0.00    +0.000 C 
ATOM      2  O   UNL     1       0.626  -1.100  -2.482  0.00  0.00    +0.000 OA
ATOM      3  N   UNL     1      -1.658  -1.332  -2.429  0.00  0.00    +0.000 N 
ATOM      4  H   UNL     1      -2.506  -1.254  -1.894  0.00  0.00    +0.000 HD
ENDROOT
BRANCH   3   5
ATOM      5  C   UNL     1      -1.785  -1.294  -3.834  0.00  0.00    +0.000 A 
ATOM      6  C   UNL     1      -1.010  -2.191  -4.598  0.00  0.00    +0.000 A 
ATOM      7  C   UNL     1      -0.116  -3.243  -3.987  0.00  0.00    +0.000 C 
ATOM      8  C   UNL     1      -1.093  -2.145  -5.993  0.00  0.00    +0.000 A 
ATOM      9  C   UNL     1      -1.945  -1.247  -6.626  0.00  0.00    +0.000 A 
ATOM     10  C   UNL     1      -2.734  -0.384  -5.872  0.00  0.00    +0.000 A 
ATOM     11  C   UNL     1      -2.681  -0.399  -4.467  0.00  0.00    +0.000 A 
ATOM     12  C   UNL     1      -3.528   0.610  -3.735  0.00  0.00    +0.000 C 
ENDBRANCH   3   5
BRANCH   1  19
ATOM     13  C   UNL     1      -2.429   0.146   0.032  0.00  0.00    +0.000 C 
ATOM     14  N   UNL     1      -1.000   0.049   0.297  0.00  0.00    +0.000 NA
ATOM     15  C   UNL     1      -0.305   1.257  -0.175  0.00  0.00    +0.000 C 
ATOM     16  C   UNL     1       1.164   1.269   0.253  0.00  0.00    +0.000 C 
ATOM     17  C   UNL     1       1.897   0.022  -0.215  0.00  0.00    +0.000 C 
ATOM     18  C   UNL     1       1.114  -1.231   0.200  0.00  0.00    +0.000 C 
ATOM     19  C   UNL     1      -0.369  -1.175  -0.268  0.00  0.00    +0.000 C 
ENDBRANCH   1  19
TORSDOF 2
