REMARK  Name = Meprednisone
REMARK  7 active torsions:
REMARK  status: ('A' for Active; 'I' for Inactive)
REMARK    1  A    between atoms: C_2  and  C_3
REMARK    2  A    between atoms: C_17  and  C_18
REMARK    3  A    between atoms: C_24  and  C_25
REMARK    4  A    between atoms: C_26  and  O_27
REMARK    5  A    between atoms: C_26  and  C_28
REMARK    6  A    between atoms: C_28  and  C_30
REMARK    7  A    between atoms: C_30  and  O_31
REMARK                            x       y       z     vdW  Elec       q    Type
REMARK                         _______ _______ _______ _____ _____    ______ ____
ROOT
ATOM      1  C   UNL     1       2.167   0.105  -0.041  0.00  0.00    +0.000 C 
ATOM      2  C   UNL     1       0.620   0.069  -0.013  0.00  0.00    +0.000 C 
ATOM      3  C   UNL     1       2.743   1.154  -0.889  0.00  0.00    +0.000 C 
ATOM      4  C   UNL     1       2.455   2.448  -0.143  0.00  0.00    +0.000 C 
ATOM      5  C   UNL     1       3.571   3.454  -0.593  0.00  0.00    +0.000 C 
ATOM      6  C   UNL     1       3.596   3.454  -2.148  0.00  0.00    +0.000 C 
ATOM      7  C   UNL     1       4.531   4.508  -2.579  0.00  0.00    +0.000 C 
ATOM      8  C   UNL     1       3.779   5.825  -2.076  0.00  0.00    +0.000 C 
ATOM      9  C   UNL     1       3.422   6.902  -2.800  0.00  0.00    +0.000 C 
ATOM     10  C   UNL     1       4.556   6.832  -3.713  0.00  0.00    +0.000 C 
ATOM     11  O   UNL     1       4.449   6.458  -4.836  0.00  0.00    +0.000 OA
ATOM     12  C   UNL     1       5.834   7.037  -2.794  0.00  0.00    +0.000 C 
ATOM     13  C   UNL     1       5.736   6.631  -1.434  0.00  0.00    +0.000 C 
ATOM     14  C   UNL     1       4.305   6.145  -0.703  0.00  0.00    +0.000 C 
ATOM     15  C   UNL     1       3.876   7.440   0.045  0.00  0.00    +0.000 C 
ATOM     16  C   UNL     1       3.366   4.912  -0.113  0.00  0.00    +0.000 C 
ATOM     17  C   UNL     1       2.933   4.806   1.322  0.00  0.00    +0.000 C 
ATOM     18  O   UNL     1       3.158   5.668   2.170  0.00  0.00    +0.000 OA
ATOM     19  C   UNL     1       1.873   3.738   1.623  0.00  0.00    +0.000 C 
ATOM     20  C   UNL     1       1.999   2.088   1.404  0.00  0.00    +0.000 C 
ATOM     21  C   UNL     1       2.080   2.089   2.944  0.00  0.00    +0.000 C 
ATOM     22  C   UNL     1       2.719   0.466   1.353  0.00  0.00    +0.000 C 
ENDROOT
BRANCH  22  23
ATOM     23  O   UNL     1       3.931   0.463   2.128  0.00  0.00    +0.000 OA
ATOM     24  H   UNL     1       3.625   0.448   3.083  0.00  0.00    +0.000 HD
ENDBRANCH  22  23
BRANCH  22  25
ATOM     25  C   UNL     1       2.765  -1.147   1.679  0.00  0.00    +0.000 C 
ATOM     26  O   UNL     1       2.119  -1.688   2.578  0.00  0.00    +0.000 OA
BRANCH  25  27
ATOM     27  C   UNL     1       3.855  -2.054   0.794  0.00  0.00    +0.000 C 
BRANCH  27  28
ATOM     28  O   UNL     1       3.995  -3.429   1.125  0.00  0.00    +0.000 OA
ATOM     29  H   UNL     1       4.228  -3.473   2.066  0.00  0.00    +0.000 HD
ENDBRANCH  27  28
ENDBRANCH  25  27
ENDBRANCH  22  25
TORSDOF 4
