REMARK  Name = Meprobamate
REMARK  10 active torsions:
REMARK  status: ('A' for Active; 'I' for Inactive)
REMARK    1  A    between atoms: C_1  and  C_2
REMARK    2  A    between atoms: C_2  and  C_3
REMARK    3  A    between atoms: C_3  and  C_4
REMARK    4  A    between atoms: C_4  and  C_5
REMARK    5  A    between atoms: C_4  and  C_6
REMARK    6  A    between atoms: C_4  and  C_11
REMARK    7  A    between atoms: C_6  and  O_7
REMARK    8  A    between atoms: O_7  and  C_8
REMARK    9  A    between atoms: C_11  and  O_12
REMARK   10  A    between atoms: O_12  and  C_13
REMARK                            x       y       z     vdW  Elec       q    Type
REMARK                         _______ _______ _______ _____ _____    ______ ____
ROOT
ATOM      1  C   UNL     1       4.618   0.789   1.226  0.00  0.00    +0.000 C 
ATOM      2  C   UNL     1       5.146  -0.651   1.394  0.00  0.00    +0.000 C 
ENDROOT
BRANCH   1   3
ATOM      3  C   UNL     1       3.062   0.772   1.218  0.00  0.00    +0.000 C 
BRANCH   3   5
ATOM      4  C   UNL     1       0.938  -0.054   0.113  0.00  0.00    +0.000 C 
ATOM      5  C   UNL     1       2.446  -0.059   0.090  0.00  0.00    +0.000 C 
ENDBRANCH   3   5
ENDBRANCH   1   3
BRANCH   1   6
ATOM      6  C   UNL     1       5.188   1.410  -0.080  0.00  0.00    +0.000 C 
BRANCH   6   7
ATOM      7  O   UNL     1       4.872   0.589  -1.222  0.00  0.00    +0.000 OA
BRANCH   7   8
ATOM      8  C   UNL     1       5.041   0.983  -2.504  0.00  0.00    +0.000 C 
ATOM      9  N   UNL     1       5.748   2.121  -2.700  0.00  0.00    +0.000 N 
ATOM     10  O   UNL     1       4.604   0.336  -3.450  0.00  0.00    +0.000 OA
ATOM     11  H   UNL     1       6.177   2.648  -1.959  0.00  0.00    +0.000 HD
ATOM     12  H   UNL     1       5.981   2.346  -3.657  0.00  0.00    +0.000 HD
ENDBRANCH   7   8
ENDBRANCH   6   7
ENDBRANCH   1   6
BRANCH   1  13
ATOM     13  C   UNL     1       5.085   1.645   2.433  0.00  0.00    +0.000 C 
BRANCH  13  14
ATOM     14  O   UNL     1       6.524   1.686   2.478  0.00  0.00    +0.000 OA
BRANCH  14  15
ATOM     15  C   UNL     1       7.214   2.355   3.433  0.00  0.00    +0.000 C 
ATOM     16  N   UNL     1       6.492   3.024   4.367  0.00  0.00    +0.000 N 
ATOM     17  O   UNL     1       8.439   2.373   3.455  0.00  0.00    +0.000 OA
ATOM     18  H   UNL     1       5.489   3.045   4.418  0.00  0.00    +0.000 HD
ATOM     19  H   UNL     1       7.020   3.517   5.075  0.00  0.00    +0.000 HD
ENDBRANCH  14  15
ENDBRANCH  13  14
ENDBRANCH   1  13
TORSDOF 8
