REMARK  Name = Mepyramine
REMARK  9 active torsions:
REMARK  status: ('A' for Active; 'I' for Inactive)
REMARK    1  A    between atoms: C_1  and  O_2
REMARK    2  A    between atoms: O_2  and  C_3
REMARK    3  A    between atoms: C_6  and  C_7
REMARK    4  A    between atoms: C_7  and  N_8
REMARK    5  A    between atoms: N_8  and  C_9
REMARK    6  A    between atoms: C_9  and  C_10
REMARK    7  A    between atoms: C_10  and  N_11
REMARK    8  A    between atoms: N_11  and  C_12
REMARK    9  A    between atoms: N_11  and  C_13
REMARK                            x       y       z     vdW  Elec       q    Type
REMARK                         _______ _______ _______ _____ _____    ______ ____
ROOT
ATOM      1  N   UNL     1       4.210   3.951  -4.490  0.00  0.00    +0.000 N 
ATOM      2  C   UNL     1       4.643   4.877  -5.494  0.00  0.00    +0.000 A 
ATOM      3  N   UNL     1       4.602   6.213  -5.244  0.00  0.00    +0.000 NA
ATOM      4  C   UNL     1       4.897   7.096  -6.236  0.00  0.00    +0.000 A 
ATOM      5  C   UNL     1       5.217   6.727  -7.526  0.00  0.00    +0.000 A 
ATOM      6  C   UNL     1       5.266   5.370  -7.796  0.00  0.00    +0.000 A 
ATOM      7  C   UNL     1       4.997   4.444  -6.775  0.00  0.00    +0.000 A 
ENDROOT
BRANCH   1   8
ATOM      8  C   UNL     1       5.092   2.711  -4.298  0.00  0.00    +0.000 C 
BRANCH   8  12
ATOM      9  C   UNL     1       3.428   0.124  -1.235  0.00  0.00    +0.000 A 
ATOM     10  C   UNL     1       4.427  -0.459  -2.008  0.00  0.00    +0.000 A 
ATOM     11  C   UNL     1       5.094   0.345  -3.016  0.00  0.00    +0.000 A 
ATOM     12  C   UNL     1       4.828   1.697  -3.179  0.00  0.00    +0.000 A 
ATOM     13  C   UNL     1       4.459   2.210  -1.972  0.00  0.00    +0.000 A 
ATOM     14  C   UNL     1       3.530   1.453  -1.240  0.00  0.00    +0.000 A 
BRANCH   9  16
ATOM     15  C   UNL     1       1.265  -0.258  -0.175  0.00  0.00    +0.000 C 
ATOM     16  O   UNL     1       2.670  -0.565  -0.321  0.00  0.00    +0.000 OA
ENDBRANCH   9  16
ENDBRANCH   8  12
ENDBRANCH   1   8
BRANCH   1  17
ATOM     17  C   UNL     1       3.082   4.595  -3.693  0.00  0.00    +0.000 C 
BRANCH  17  18
ATOM     18  C   UNL     1       2.411   3.851  -2.514  0.00  0.00    +0.000 C 
BRANCH  18  19
ATOM     19  N   UNL     1       1.222   4.249  -1.709  0.00  0.00    +0.000 NA
ATOM     20  C   UNL     1       0.069   4.123  -2.575  0.00  0.00    +0.000 C 
ATOM     21  C   UNL     1       1.012   3.327  -0.566  0.00  0.00    +0.000 C 
ENDBRANCH  18  19
ENDBRANCH  17  18
ENDBRANCH   1  17
TORSDOF 6
