REMARK  Name = Mequinol
REMARK  3 active torsions:
REMARK  status: ('A' for Active; 'I' for Inactive)
REMARK    1  A    between atoms: C_1  and  O_2
REMARK    2  A    between atoms: O_2  and  C_3
REMARK    3  A    between atoms: C_6  and  O_7
REMARK                            x       y       z     vdW  Elec       q    Type
REMARK                         _______ _______ _______ _____ _____    ______ ____
ROOT
ATOM      1  C   UNL     1       3.018   1.228  -0.059  0.00  0.00    +0.000 A 
ATOM      2  C   UNL     1       4.415   1.166  -0.075  0.00  0.00    +0.000 A 
ATOM      3  C   UNL     1       5.183   2.334  -0.096  0.00  0.00    +0.000 A 
ATOM      4  C   UNL     1       4.542   3.567  -0.098  0.00  0.00    +0.000 A 
ATOM      5  C   UNL     1       3.156   3.645  -0.072  0.00  0.00    +0.000 A 
ATOM      6  C   UNL     1       2.391   2.476  -0.051  0.00  0.00    +0.000 A 
ENDROOT
BRANCH   1   8
ATOM      7  C   UNL     1       0.961   0.042  -0.066  0.00  0.00    +0.000 C 
ATOM      8  O   UNL     1       2.384   0.016  -0.051  0.00  0.00    +0.000 OA
ENDBRANCH   1   8
BRANCH   4   9
ATOM      9  O   UNL     1       5.240   4.738  -0.126  0.00  0.00    +0.000 OA
ATOM     10  H   UNL     1       6.189   4.534  -0.155  0.00  0.00    +0.000 HD
ENDBRANCH   4   9
TORSDOF 2
