REMARK  Name = Meradimate
REMARK  8 active torsions:
REMARK  status: ('A' for Active; 'I' for Inactive)
REMARK    1  A    between atoms: C_1  and  C_2
REMARK    2  A    between atoms: C_2  and  C_3
REMARK    3  A    between atoms: C_2  and  C_4
REMARK    4  A    between atoms: C_7  and  C_8
REMARK    5  A    between atoms: C_10  and  O_11
REMARK    6  A    between atoms: O_11  and  C_12
REMARK    7  A    between atoms: C_12  and  C_14
REMARK    8  A    between atoms: C_19  and  N_20
REMARK                            x       y       z     vdW  Elec       q    Type
REMARK                         _______ _______ _______ _____ _____    ______ ____
ROOT
ATOM      1  O   UNL     1       2.766  -2.379  -1.534  0.00  0.00    +0.000 OA
ENDROOT
BRANCH   1   8
ATOM      2  C   UNL     1       3.089  -1.205   0.710  0.00  0.00    +0.000 C 
ATOM      3  C   UNL     1       4.631  -1.240   0.782  0.00  0.00    +0.000 C 
ATOM      4  C   UNL     1       5.154  -2.536   1.378  0.00  0.00    +0.000 C 
ATOM      5  C   UNL     1       4.633  -3.747   0.599  0.00  0.00    +0.000 C 
ATOM      6  C   UNL     1       5.236  -3.819  -0.805  0.00  0.00    +0.000 C 
ATOM      7  C   UNL     1       3.094  -3.720   0.538  0.00  0.00    +0.000 C 
ATOM      8  C   UNL     1       2.498  -2.424  -0.084  0.00  0.00    +0.000 C 
BRANCH   2  10
ATOM      9  C   UNL     1       1.077   0.216   0.205  0.00  0.00    +0.000 C 
ATOM     10  C   UNL     1       2.616   0.179   0.217  0.00  0.00    +0.000 C 
ATOM     11  C   UNL     1       3.346   0.592  -1.058  0.00  0.00    +0.000 C 
ENDBRANCH   2  10
ENDBRANCH   1   8
BRANCH   1  12
ATOM     12  C   UNL     1       2.088  -1.581  -2.422  0.00  0.00    +0.000 C 
ATOM     13  O   UNL     1       1.038  -0.961  -2.251  0.00  0.00    +0.000 OA
BRANCH  12  14
ATOM     14  C   UNL     1       2.823  -1.428  -3.701  0.00  0.00    +0.000 A 
ATOM     15  C   UNL     1       3.324  -0.185  -4.180  0.00  0.00    +0.000 A 
ATOM     16  C   UNL     1       3.792  -0.059  -5.483  0.00  0.00    +0.000 A 
ATOM     17  C   UNL     1       3.714  -1.162  -6.319  0.00  0.00    +0.000 A 
ATOM     18  C   UNL     1       3.225  -2.388  -5.836  0.00  0.00    +0.000 A 
ATOM     19  C   UNL     1       2.823  -2.557  -4.509  0.00  0.00    +0.000 A 
BRANCH  19  20
ATOM     20  N   UNL     1       2.166  -3.723  -4.091  0.00  0.00    +0.000 N 
ATOM     21  H   UNL     1       2.372  -4.570  -4.598  0.00  0.00    +0.000 HD
ATOM     22  H   UNL     1       2.169  -3.854  -3.077  0.00  0.00    +0.000 HD
ENDBRANCH  19  20
ENDBRANCH  12  14
ENDBRANCH   1  12
TORSDOF 5
