REMARK  Name = Mercaptopurine
REMARK  0 active torsions:
REMARK  status: ('A' for Active; 'I' for Inactive)
REMARK                            x       y       z     vdW  Elec       q    Type
REMARK                         _______ _______ _______ _____ _____    ______ ____
ROOT
ATOM      1  S   UNL     1       0.874   0.032  -0.081  0.00  0.00    +0.000 S 
ATOM      2  C   UNL     1       2.544   0.097  -0.084  0.00  0.00    +0.000 A 
ATOM      3  N   UNL     1       3.315   1.246  -0.087  0.00  0.00    +0.000 NA
ATOM      4  C   UNL     1       4.608   1.123  -0.092  0.00  0.00    +0.000 A 
ATOM      5  N   UNL     1       5.363  -0.021  -0.094  0.00  0.00    +0.000 N 
ATOM      6  C   UNL     1       4.661  -1.154  -0.090  0.00  0.00    +0.000 A 
ATOM      7  C   UNL     1       3.295  -1.122  -0.085  0.00  0.00    +0.000 A 
ATOM      8  N   UNL     1       2.930  -2.441  -0.083  0.00  0.00    +0.000 N 
ATOM      9  C   UNL     1       4.087  -3.179  -0.087  0.00  0.00    +0.000 A 
ATOM     10  N   UNL     1       5.161  -2.413  -0.091  0.00  0.00    +0.000 NA
ATOM     11  H   UNL     1       6.374  -0.004  -0.098  0.00  0.00    +0.000 HD
ATOM     12  H   UNL     1       1.982  -2.797  -0.079  0.00  0.00    +0.000 HD
ENDROOT
TORSDOF 0
