REMARK  Name = Meropenem
REMARK  11 active torsions:
REMARK  status: ('A' for Active; 'I' for Inactive)
REMARK    1  A    between atoms: C_2  and  C_3
REMARK    2  A    between atoms: C_3  and  C_4
REMARK    3  A    between atoms: C_3  and  O_5
REMARK    4  A    between atoms: C_9  and  C_10
REMARK    5  A    between atoms: C_10  and  O_11
REMARK    6  A    between atoms: C_13  and  S_14
REMARK    7  A    between atoms: S_14  and  C_15
REMARK    8  A    between atoms: C_18  and  C_20
REMARK    9  A    between atoms: N_22  and  C_23
REMARK   10  A    between atoms: N_22  and  C_24
REMARK   11  A    between atoms: C_25  and  C_26
REMARK                            x       y       z     vdW  Elec       q    Type
REMARK                         _______ _______ _______ _____ _____    ______ ____
ROOT
ATOM      1  C   UNL     1       2.046  -0.089   0.082  0.00  0.00    +0.000 C 
ATOM      2  C   UNL     1       2.776  -1.460   0.080  0.00  0.00    +0.000 C 
ATOM      3  O   UNL     1       2.967  -2.340   0.880  0.00  0.00    +0.000 OA
ATOM      4  N   UNL     1       3.173  -1.318  -1.224  0.00  0.00    +0.000 N 
ATOM      5  C   UNL     1       4.479  -1.391  -1.700  0.00  0.00    +0.000 C 
ATOM      6  C   UNL     1       4.950  -0.165  -2.053  0.00  0.00    +0.000 C 
ATOM      7  C   UNL     1       4.026   0.909  -1.515  0.00  0.00    +0.000 C 
ATOM      8  C   UNL     1       4.443   1.517  -0.165  0.00  0.00    +0.000 C 
ATOM      9  C   UNL     1       2.731   0.105  -1.305  0.00  0.00    +0.000 C 
ENDROOT
BRANCH   1  10
ATOM     10  C   UNL     1       0.523  -0.072   0.090  0.00  0.00    +0.000 C 
ATOM     11  C   UNL     1       0.004   0.743   1.271  0.00  0.00    +0.000 C 
BRANCH  10  12
ATOM     12  O   UNL     1       0.006  -1.394   0.169  0.00  0.00    +0.000 OA
ATOM     13  H   UNL     1       0.318  -1.799   1.001  0.00  0.00    +0.000 HD
ENDBRANCH  10  12
ENDBRANCH   1  10
BRANCH   5  14
ATOM     14  C   UNL     1       5.196  -2.700  -1.929  0.00  0.00    +0.000 C 
ATOM     15  O   UNL     1       6.296  -2.800  -2.452  0.00  0.00    +0.000 OA
BRANCH  14  16
ATOM     16  O   UNL     1       4.552  -3.809  -1.504  0.00  0.00    +0.000 OA
ATOM     17  H   UNL     1       3.729  -3.669  -1.001  0.00  0.00    +0.000 HD
ENDBRANCH  14  16
ENDBRANCH   5  14
BRANCH   6  18
ATOM     18  S   UNL     1       6.303   0.098  -3.104  0.00  0.00    +0.000 S 
BRANCH  18  19
ATOM     19  C   UNL     1       6.604   1.852  -3.433  0.00  0.00    +0.000 C 
ATOM     20  C   UNL     1       6.895   2.666  -2.204  0.00  0.00    +0.000 C 
ATOM     21  N   UNL     1       6.732   4.067  -2.564  0.00  0.00    +0.000 NA
ATOM     22  C   UNL     1       5.682   4.098  -3.619  0.00  0.00    +0.000 C 
ATOM     23  C   UNL     1       5.516   2.651  -4.129  0.00  0.00    +0.000 C 
ATOM     24  H   UNL     1       7.610   4.439  -2.911  0.00  0.00    +0.000 HD
BRANCH  22  25
ATOM     25  C   UNL     1       4.339   4.697  -3.083  0.00  0.00    +0.000 C 
ATOM     26  O   UNL     1       4.179   4.986  -1.894  0.00  0.00    +0.000 OA
ATOM     27  N   UNL     1       3.306   4.890  -4.009  0.00  0.00    +0.000 N 
ATOM     28  C   UNL     1       3.382   4.577  -5.428  0.00  0.00    +0.000 C 
ATOM     29  C   UNL     1       2.041   5.463  -3.557  0.00  0.00    +0.000 C 
ENDBRANCH  22  25
ENDBRANCH  18  19
ENDBRANCH   6  18
TORSDOF 7
