REMARK  Name = Mesalazine
REMARK  4 active torsions:
REMARK  status: ('A' for Active; 'I' for Inactive)
REMARK    1  A    between atoms: N_1  and  C_2
REMARK    2  A    between atoms: C_4  and  C_5
REMARK    3  A    between atoms: C_5  and  O_6
REMARK    4  A    between atoms: C_8  and  O_9
REMARK                            x       y       z     vdW  Elec       q    Type
REMARK                         _______ _______ _______ _____ _____    ______ ____
ROOT
ATOM      1  C   UNL     1      -1.454   0.022   0.002  0.00  0.00    +0.000 A 
ATOM      2  C   UNL     1      -0.750   1.233   0.008  0.00  0.00    +0.000 A 
ATOM      3  C   UNL     1       0.653   1.260   0.029  0.00  0.00    +0.000 A 
ATOM      4  C   UNL     1       1.344   0.036   0.015  0.00  0.00    +0.000 A 
ATOM      5  C   UNL     1       0.651  -1.174   0.015  0.00  0.00    +0.000 A 
ATOM      6  C   UNL     1      -0.744  -1.178   0.013  0.00  0.00    +0.000 A 
ENDROOT
BRANCH   1   7
ATOM      7  N   UNL     1      -2.836   0.028  -0.005  0.00  0.00    +0.000 N 
ATOM      8  H   UNL     1      -3.360   0.891  -0.038  0.00  0.00    +0.000 HD
ATOM      9  H   UNL     1      -3.357  -0.839   0.021  0.00  0.00    +0.000 HD
ENDBRANCH   1   7
BRANCH   3  10
ATOM     10  C   UNL     1       1.436   2.528   0.084  0.00  0.00    +0.000 C 
ATOM     11  O   UNL     1       2.661   2.505   0.109  0.00  0.00    +0.000 OA
BRANCH  10  12
ATOM     12  O   UNL     1       0.758   3.691   0.114  0.00  0.00    +0.000 OA
ATOM     13  H   UNL     1      -0.212   3.667   0.098  0.00  0.00    +0.000 HD
ENDBRANCH  10  12
ENDBRANCH   3  10
BRANCH   4  14
ATOM     14  O   UNL     1       2.711  -0.066  -0.006  0.00  0.00    +0.000 OA
ATOM     15  H   UNL     1       3.094   0.841  -0.007  0.00  0.00    +0.000 HD
ENDBRANCH   4  14
TORSDOF 4
