REMARK  Name = Mesoridazine
REMARK  6 active torsions:
REMARK  status: ('A' for Active; 'I' for Inactive)
REMARK    1  A    between atoms: C_1  and  N_2
REMARK    2  A    between atoms: C_7  and  C_8
REMARK    3  A    between atoms: C_8  and  C_9
REMARK    4  A    between atoms: C_9  and  N_10
REMARK    5  A    between atoms: C_17  and  S_20
REMARK    6  A    between atoms: S_20  and  C_21
REMARK                            x       y       z     vdW  Elec       q    Type
REMARK                         _______ _______ _______ _____ _____    ______ ____
ROOT
ATOM      1  N   UNL     1      -1.686  -1.237  -3.823  0.00  0.00    +0.000 N 
ATOM      2  C   UNL     1      -1.737  -2.493  -4.452  0.00  0.00    +0.000 A 
ATOM      3  C   UNL     1      -2.679  -2.777  -5.456  0.00  0.00    +0.000 A 
ATOM      4  S   UNL     1      -3.960  -1.605  -5.877  0.00  0.00    +0.000 S 
ATOM      5  C   UNL     1      -3.128  -0.081  -5.447  0.00  0.00    +0.000 A 
ATOM      6  C   UNL     1      -2.162  -0.044  -4.425  0.00  0.00    +0.000 A 
ATOM      7  C   UNL     1      -1.569   1.195  -4.101  0.00  0.00    +0.000 A 
ATOM      8  C   UNL     1      -1.858   2.358  -4.819  0.00  0.00    +0.000 A 
ATOM      9  C   UNL     1      -2.801   2.291  -5.849  0.00  0.00    +0.000 A 
ATOM     10  C   UNL     1      -3.447   1.086  -6.146  0.00  0.00    +0.000 A 
ATOM     11  C   UNL     1      -2.592  -3.979  -6.153  0.00  0.00    +0.000 A 
ATOM     12  C   UNL     1      -1.579  -4.900  -5.869  0.00  0.00    +0.000 A 
ATOM     13  C   UNL     1      -0.656  -4.633  -4.865  0.00  0.00    +0.000 A 
ATOM     14  C   UNL     1      -0.743  -3.443  -4.175  0.00  0.00    +0.000 A 
ENDROOT
BRANCH   8  15
ATOM     15  S   UNL     1      -1.113   3.944  -4.352  0.00  0.00    +0.000 S 
ATOM     16  C   UNL     1       0.643   3.593  -4.611  0.00  0.00    +0.000 C 
ATOM     17  O   UNL     1      -1.533   4.923  -5.408  0.00  0.00    +0.000 OA
ENDBRANCH   8  15
BRANCH   1  18
ATOM     18  C   UNL     1      -1.804  -1.312  -2.361  0.00  0.00    +0.000 C 
BRANCH  18  19
ATOM     19  C   UNL     1      -0.426  -1.242  -1.720  0.00  0.00    +0.000 C 
BRANCH  19  26
ATOM     20  C   UNL     1      -2.418   0.199   0.256  0.00  0.00    +0.000 C 
ATOM     21  N   UNL     1      -0.968   0.084   0.389  0.00  0.00    +0.000 NA
ATOM     22  C   UNL     1      -0.300   1.294  -0.099  0.00  0.00    +0.000 C 
ATOM     23  C   UNL     1       1.187   1.282   0.255  0.00  0.00    +0.000 C 
ATOM     24  C   UNL     1       1.892   0.020  -0.233  0.00  0.00    +0.000 C 
ATOM     25  C   UNL     1       1.116  -1.212   0.236  0.00  0.00    +0.000 C 
ATOM     26  C   UNL     1      -0.378  -1.136  -0.189  0.00  0.00    +0.000 C 
ENDBRANCH  19  26
ENDBRANCH  18  19
ENDBRANCH   1  18
TORSDOF 4
