REMARK  Name = Mestranol
REMARK  5 active torsions:
REMARK  status: ('A' for Active; 'I' for Inactive)
REMARK    1  A    between atoms: C_5  and  O_6
REMARK    2  A    between atoms: C_5  and  C_7
REMARK    3  A    between atoms: C_9  and  C_10
REMARK    4  A    between atoms: C_22  and  O_23
REMARK    5  A    between atoms: O_23  and  C_24
REMARK                            x       y       z     vdW  Elec       q    Type
REMARK                         _______ _______ _______ _____ _____    ______ ____
ROOT
ATOM      1  C   UNL     1       1.751   0.022  -0.267  0.00  0.00    +0.000 C 
ATOM      2  C   UNL     1       2.216  -0.288  -1.568  0.00  0.00    +0.000 C 
ATOM      3  C   UNL     1       3.156  -0.404  -0.423  0.00  0.00    +0.000 C 
ATOM      4  C   UNL     1       2.194  -0.552   1.427  0.00  0.00    +0.000 C 
ATOM      5  C   UNL     1       2.670  -1.461   0.536  0.00  0.00    +0.000 C 
ATOM      6  C   UNL     1       2.182  -2.817   0.231  0.00  0.00    +0.000 C 
ATOM      7  C   UNL     1       4.333  -1.152   1.255  0.00  0.00    +0.000 C 
ATOM      8  C   UNL     1       4.464   0.402   1.790  0.00  0.00    +0.000 C 
ATOM      9  C   UNL     1       3.950   1.612   0.869  0.00  0.00    +0.000 C 
ATOM     10  C   UNL     1       4.203   2.986   1.399  0.00  0.00    +0.000 A 
ATOM     11  C   UNL     1       3.392   4.060   0.995  0.00  0.00    +0.000 A 
ATOM     12  C   UNL     1       2.195   3.942   0.076  0.00  0.00    +0.000 C 
ATOM     13  C   UNL     1       2.097   2.617  -0.632  0.00  0.00    +0.000 C 
ATOM     14  C   UNL     1       2.364   1.552   0.401  0.00  0.00    +0.000 C 
ATOM     15  C   UNL     1       3.658   5.311   1.524  0.00  0.00    +0.000 A 
ATOM     16  C   UNL     1       4.741   5.512   2.380  0.00  0.00    +0.000 A 
ATOM     17  C   UNL     1       5.585   4.455   2.703  0.00  0.00    +0.000 A 
ATOM     18  C   UNL     1       5.328   3.199   2.198  0.00  0.00    +0.000 A 
ENDROOT
BRANCH   4  19
ATOM     19  O   UNL     1       2.420  -1.448   2.579  0.00  0.00    +0.000 OA
ATOM     20  H   UNL     1       3.165  -1.304   3.173  0.00  0.00    +0.000 HD
ENDBRANCH   4  19
BRANCH   4  21
ATOM     21  C   UNL     1       0.605  -0.729   1.588  0.00  0.00    +0.000 C 
ATOM     22  C   UNL     1      -0.588  -0.960   1.741  0.00  0.00    +0.000 C 
ENDBRANCH   4  21
BRANCH  16  23
ATOM     23  O   UNL     1       5.062   6.712   2.947  0.00  0.00    +0.000 OA
ATOM     24  C   UNL     1       4.193   7.784   2.605  0.00  0.00    +0.000 C 
ENDBRANCH  16  23
TORSDOF 3
