REMARK  Name = Metamizole
REMARK  8 active torsions:
REMARK  status: ('A' for Active; 'I' for Inactive)
REMARK    1  A    between atoms: C_1  and  N_2
REMARK    2  A    between atoms: N_2  and  C_3
REMARK    3  A    between atoms: N_2  and  C_8
REMARK    4  A    between atoms: C_3  and  S_4
REMARK    5  A    between atoms: S_4  and  O_5
REMARK    6  A    between atoms: C_9  and  C_10
REMARK    7  A    between atoms: N_11  and  C_12
REMARK    8  A    between atoms: N_13  and  C_16
REMARK                            x       y       z     vdW  Elec       q    Type
REMARK                         _______ _______ _______ _____ _____    ______ ____
ROOT
ATOM      1  C   UNL     1       3.289   0.942   0.809  0.00  0.00    +0.000 A 
ATOM      2  C   UNL     1       4.296   1.862   0.756  0.00  0.00    +0.000 A 
ATOM      3  C   UNL     1       5.008   2.320  -0.492  0.00  0.00    +0.000 C 
ATOM      4  N   UNL     1       4.542   2.452   2.019  0.00  0.00    +0.000 N 
ATOM      5  C   UNL     1       5.505   3.449   2.476  0.00  0.00    +0.000 C 
ATOM      6  N   UNL     1       3.661   1.858   2.941  0.00  0.00    +0.000 N 
ATOM      7  C   UNL     1       2.946   0.866   2.295  0.00  0.00    +0.000 A 
ATOM      8  O   UNL     1       2.153   0.072   2.781  0.00  0.00    +0.000 OA
ENDROOT
BRANCH   6   9
ATOM      9  C   UNL     1       3.726   2.024   4.335  0.00  0.00    +0.000 A 
ATOM     10  C   UNL     1       3.482   3.279   4.901  0.00  0.00    +0.000 A 
ATOM     11  C   UNL     1       3.576   3.464   6.280  0.00  0.00    +0.000 A 
ATOM     12  C   UNL     1       3.832   2.375   7.113  0.00  0.00    +0.000 A 
ATOM     13  C   UNL     1       4.019   1.108   6.564  0.00  0.00    +0.000 A 
ATOM     14  C   UNL     1       3.956   0.930   5.179  0.00  0.00    +0.000 A 
ENDBRANCH   6   9
BRANCH   1  16
ATOM     15  C   UNL     1       1.071   0.164   0.038  0.00  0.00    +0.000 C 
ATOM     16  N   UNL     1       2.534   0.185  -0.111  0.00  0.00    +0.000 N 
BRANCH  16  17
ATOM     17  C   UNL     1       3.138  -0.755  -1.109  0.00  0.00    +0.000 C 
BRANCH  17  18
ATOM     18  S   UNL     1       2.071  -1.672  -2.342  0.00  0.00    +0.000 S 
ATOM     19  O   UNL     1       1.088  -0.779  -2.909  0.00  0.00    +0.000 OA
ATOM     20  O   UNL     1       2.906  -2.493  -3.202  0.00  0.00    +0.000 OA
BRANCH  18  21
ATOM     21  O   UNL     1       1.299  -2.693  -1.339  0.00  0.00    +0.000 OA
ATOM     22  H   UNL     1       0.610  -2.263  -0.794  0.00  0.00    +0.000 HD
ENDBRANCH  18  21
ENDBRANCH  17  18
ENDBRANCH  16  17
ENDBRANCH   1  16
TORSDOF 5
