REMARK  Name = Metaraminol
REMARK  6 active torsions:
REMARK  status: ('A' for Active; 'I' for Inactive)
REMARK    1  A    between atoms: C_1  and  C_2
REMARK    2  A    between atoms: C_2  and  N_3
REMARK    3  A    between atoms: C_2  and  C_4
REMARK    4  A    between atoms: C_4  and  O_5
REMARK    5  A    between atoms: C_4  and  C_6
REMARK    6  A    between atoms: C_8  and  O_9
REMARK                            x       y       z     vdW  Elec       q    Type
REMARK                         _______ _______ _______ _____ _____    ______ ____
ROOT
ATOM      1  C   UNL     1       3.167  -0.282   1.338  0.00  0.00    +0.000 C 
ENDROOT
BRANCH   1   2
ATOM      2  C   UNL     1       4.685  -0.209   1.324  0.00  0.00    +0.000 A 
ATOM      3  C   UNL     1       5.504  -1.333   1.152  0.00  0.00    +0.000 A 
ATOM      4  C   UNL     1       6.884  -1.265   1.226  0.00  0.00    +0.000 A 
ATOM      5  C   UNL     1       7.509  -0.042   1.367  0.00  0.00    +0.000 A 
ATOM      6  C   UNL     1       6.728   1.112   1.438  0.00  0.00    +0.000 A 
ATOM      7  C   UNL     1       5.329   1.034   1.424  0.00  0.00    +0.000 A 
BRANCH   4   8
ATOM      8  O   UNL     1       7.633  -2.401   1.156  0.00  0.00    +0.000 OA
ATOM      9  H   UNL     1       7.027  -3.164   1.176  0.00  0.00    +0.000 HD
ENDBRANCH   4   8
ENDBRANCH   1   2
BRANCH   1  11
ATOM     10  C   UNL     1       1.261  -2.003   1.087  0.00  0.00    +0.000 C 
ATOM     11  C   UNL     1       2.458  -1.574   1.937  0.00  0.00    +0.000 C 
BRANCH  11  12
ATOM     12  N   UNL     1       3.264  -2.799   2.093  0.00  0.00    +0.000 NA
ATOM     13  H   UNL     1       3.384  -3.223   1.173  0.00  0.00    +0.000 HD
ATOM     14  H   UNL     1       2.768  -3.491   2.649  0.00  0.00    +0.000 HD
ENDBRANCH  11  12
ENDBRANCH   1  11
BRANCH   1  15
ATOM     15  O   UNL     1       2.723  -0.013   0.003  0.00  0.00    +0.000 OA
ATOM     16  H   UNL     1       3.091  -0.713  -0.559  0.00  0.00    +0.000 HD
ENDBRANCH   1  15
TORSDOF 5
