REMARK  Name = Metacycline
REMARK  9 active torsions:
REMARK  status: ('A' for Active; 'I' for Inactive)
REMARK    1  A    between atoms: C_3  and  O_4
REMARK    2  A    between atoms: C_11  and  O_12
REMARK    3  A    between atoms: C_19  and  O_20
REMARK    4  A    between atoms: C_21  and  O_22
REMARK    5  A    between atoms: C_25  and  C_26
REMARK    6  A    between atoms: C_29  and  O_30
REMARK    7  A    between atoms: C_31  and  N_32
REMARK    8  A    between atoms: N_32  and  C_33
REMARK    9  A    between atoms: N_32  and  C_34
REMARK                            x       y       z     vdW  Elec       q    Type
REMARK                         _______ _______ _______ _____ _____    ______ ____
ROOT
ATOM      1  C   UNL     1       1.506   0.309   0.118  0.00  0.00    +0.000 C 
ATOM      2  C   UNL     1       1.847   0.228   1.866  0.00  0.00    +0.000 C 
ATOM      3  C   UNL     1       1.682  -0.988   2.649  0.00  0.00    +0.000 C 
ATOM      4  C   UNL     1       2.464  -0.747   3.925  0.00  0.00    +0.000 C 
ATOM      5  C   UNL     1       3.266   0.285   4.287  0.00  0.00    +0.000 C 
ATOM      6  C   UNL     1       2.242  -1.881   4.774  0.00  0.00    +0.000 A 
ATOM      7  C   UNL     1       2.164  -3.181   4.227  0.00  0.00    +0.000 A 
ATOM      8  C   UNL     1       1.973  -4.232   5.098  0.00  0.00    +0.000 A 
ATOM      9  C   UNL     1       1.820  -3.958   6.462  0.00  0.00    +0.000 A 
ATOM     10  C   UNL     1       1.834  -2.650   6.961  0.00  0.00    +0.000 A 
ATOM     11  C   UNL     1       2.030  -1.599   6.108  0.00  0.00    +0.000 A 
ATOM     12  C   UNL     1       2.304  -3.367   2.745  0.00  0.00    +0.000 C 
ATOM     13  O   UNL     1       2.454  -4.463   2.216  0.00  0.00    +0.000 OA
ATOM     14  C   UNL     1       2.284  -2.100   1.969  0.00  0.00    +0.000 C 
ATOM     15  C   UNL     1       2.852  -1.799   0.807  0.00  0.00    +0.000 C 
ATOM     16  C   UNL     1       2.817  -0.229   0.076  0.00  0.00    +0.000 C 
ATOM     17  C   UNL     1       2.846   1.713   0.635  0.00  0.00    +0.000 C 
ATOM     18  O   UNL     1       2.088   2.368   1.448  0.00  0.00    +0.000 OA
ATOM     19  C   UNL     1       3.138   2.962  -0.135  0.00  0.00    +0.000 C 
ATOM     20  C   UNL     1       2.145   2.607  -1.015  0.00  0.00    +0.000 C 
ATOM     21  C   UNL     1       2.287   1.169  -1.399  0.00  0.00    +0.000 C 
ENDROOT
BRANCH  19  22
ATOM     22  C   UNL     1       4.613   3.149   0.233  0.00  0.00    +0.000 C 
ATOM     23  N   UNL     1       5.342   1.999   0.379  0.00  0.00    +0.000 N 
ATOM     24  O   UNL     1       5.146   4.241   0.384  0.00  0.00    +0.000 OA
ATOM     25  H   UNL     1       4.894   1.243  -0.113  0.00  0.00    +0.000 HD
ATOM     26  H   UNL     1       6.299   2.082   0.070  0.00  0.00    +0.000 HD
ENDBRANCH  19  22
BRANCH  21  27
ATOM     27  N   UNL     1       3.949   1.106  -1.643  0.00  0.00    +0.000 NA
ATOM     28  C   UNL     1       4.787  -0.110  -1.737  0.00  0.00    +0.000 C 
ATOM     29  C   UNL     1       4.498   2.177  -2.478  0.00  0.00    +0.000 C 
ENDBRANCH  21  27
BRANCH   2  30
ATOM     30  O   UNL     1       1.050   1.074   2.693  0.00  0.00    +0.000 OA
ATOM     31  H   UNL     1       0.827   1.805   2.098  0.00  0.00    +0.000 HD
ENDBRANCH   2  30
BRANCH   8  32
ATOM     32  O   UNL     1       1.927  -5.536   4.701  0.00  0.00    +0.000 OA
ATOM     33  H   UNL     1       2.089  -5.580   3.734  0.00  0.00    +0.000 HD
ENDBRANCH   8  32
BRANCH  15  34
ATOM     34  O   UNL     1       3.246  -2.903  -0.003  0.00  0.00    +0.000 OA
ATOM     35  H   UNL     1       2.953  -3.745   0.441  0.00  0.00    +0.000 HD
ENDBRANCH  15  34
BRANCH  16  36
ATOM     36  O   UNL     1       2.577  -0.983  -1.199  0.00  0.00    +0.000 OA
ATOM     37  H   UNL     1       3.200  -1.744  -1.216  0.00  0.00    +0.000 HD
ENDBRANCH  16  36
BRANCH  20  38
ATOM     38  O   UNL     1       0.778   2.919  -0.834  0.00  0.00    +0.000 OA
ATOM     39  H   UNL     1       0.639   3.382   0.019  0.00  0.00    +0.000 HD
ENDBRANCH  20  38
TORSDOF 7
