REMARK  Name = Metaxalone
REMARK  5 active torsions:
REMARK  status: ('A' for Active; 'I' for Inactive)
REMARK    1  A    between atoms: C_1  and  C_2
REMARK    2  A    between atoms: C_4  and  O_5
REMARK    3  A    between atoms: O_5  and  C_6
REMARK    4  A    between atoms: C_6  and  C_7
REMARK    5  A    between atoms: C_14  and  C_15
REMARK                            x       y       z     vdW  Elec       q    Type
REMARK                         _______ _______ _______ _____ _____    ______ ____
ROOT
ATOM      1  O   UNL     1       0.060  -3.106  -0.116  0.00  0.00    +0.000 OA
ENDROOT
BRANCH   1   5
ATOM      2  C   UNL     1       2.528   1.105   0.010  0.00  0.00    +0.000 C 
ATOM      3  C   UNL     1       1.227   0.368   0.004  0.00  0.00    +0.000 A 
ATOM      4  C   UNL     1       1.252  -1.024  -0.012  0.00  0.00    +0.000 A 
ATOM      5  C   UNL     1       0.078  -1.753  -0.040  0.00  0.00    +0.000 A 
ATOM      6  C   UNL     1      -1.155  -1.088  -0.017  0.00  0.00    +0.000 A 
ATOM      7  C   UNL     1      -1.207   0.315   0.000  0.00  0.00    +0.000 A 
ATOM      8  C   UNL     1      -2.524   1.039  -0.003  0.00  0.00    +0.000 C 
ATOM      9  C   UNL     1      -0.004   1.036  -0.000  0.00  0.00    +0.000 A 
ENDBRANCH   1   5
BRANCH   1  10
ATOM     10  C   UNL     1       1.326  -3.860  -0.058  0.00  0.00    +0.000 C 
BRANCH  10  11
ATOM     11  C   UNL     1       0.857  -5.308   0.128  0.00  0.00    +0.000 C 
ATOM     12  C   UNL     1       0.953  -6.409   1.161  0.00  0.00    +0.000 C 
ATOM     13  N   UNL     1       1.067  -7.585   0.363  0.00  0.00    +0.000 N 
ATOM     14  C   UNL     1       0.768  -7.308  -0.936  0.00  0.00    +0.000 C 
ATOM     15  O   UNL     1       0.660  -8.152  -1.828  0.00  0.00    +0.000 OA
ATOM     16  O   UNL     1       0.598  -5.969  -1.117  0.00  0.00    +0.000 OA
ATOM     17  H   UNL     1       1.023  -8.542   0.697  0.00  0.00    +0.000 HD
ENDBRANCH  10  11
ENDBRANCH   1  10
TORSDOF 3
