REMARK  Name = Metergoline
REMARK  7 active torsions:
REMARK  status: ('A' for Active; 'I' for Inactive)
REMARK    1  A    between atoms: N_6  and  C_7
REMARK    2  A    between atoms: C_17  and  C_18
REMARK    3  A    between atoms: C_18  and  N_19
REMARK    4  A    between atoms: C_20  and  O_22
REMARK    5  A    between atoms: O_22  and  C_23
REMARK    6  A    between atoms: C_23  and  C_24
REMARK    7  A    between atoms: N_31  and  C_32
REMARK                            x       y       z     vdW  Elec       q    Type
REMARK                         _______ _______ _______ _____ _____    ______ ____
ROOT
ATOM      1  C   UNL     1       2.442  -0.355  -0.159  0.00  0.00    +0.000 C 
ATOM      2  C   UNL     1       2.730  -1.657   0.617  0.00  0.00    +0.000 C 
ATOM      3  C   UNL     1       4.074  -1.391   0.963  0.00  0.00    +0.000 A 
ATOM      4  C   UNL     1       5.125  -2.216   1.093  0.00  0.00    +0.000 A 
ATOM      5  N   UNL     1       6.196  -1.391   1.247  0.00  0.00    +0.000 N 
ATOM      6  C   UNL     1       7.505  -1.970   1.404  0.00  0.00    +0.000 C 
ATOM      7  C   UNL     1       5.811  -0.048   1.200  0.00  0.00    +0.000 A 
ATOM      8  C   UNL     1       6.506   1.151   1.258  0.00  0.00    +0.000 A 
ATOM      9  C   UNL     1       5.714   2.319   1.107  0.00  0.00    +0.000 A 
ATOM     10  C   UNL     1       4.288   2.323   0.837  0.00  0.00    +0.000 A 
ATOM     11  C   UNL     1       3.539   1.118   0.739  0.00  0.00    +0.000 A 
ATOM     12  C   UNL     1       4.431  -0.029   1.023  0.00  0.00    +0.000 A 
ATOM     13  C   UNL     1       1.811   0.937   0.084  0.00  0.00    +0.000 C 
ATOM     14  C   UNL     1       0.464  -0.317  -0.587  0.00  0.00    +0.000 C 
ATOM     15  C   UNL     1       0.628  -0.843  -2.115  0.00  0.00    +0.000 C 
ATOM     16  C   UNL     1       2.121  -1.110  -2.374  0.00  0.00    +0.000 C 
ATOM     17  N   UNL     1       2.810  -0.119  -1.593  0.00  0.00    +0.000 NA
ATOM     18  C   UNL     1       2.598   1.260  -2.186  0.00  0.00    +0.000 C 
ENDROOT
BRANCH  15  19
ATOM     19  C   UNL     1      -0.038   0.163  -3.073  0.00  0.00    +0.000 C 
BRANCH  19  20
ATOM     20  N   UNL     1      -0.763   1.188  -2.325  0.00  0.00    +0.000 N 
ATOM     21  C   UNL     1      -1.059   2.432  -2.762  0.00  0.00    +0.000 C 
ATOM     22  O   UNL     1      -0.959   2.824  -3.886  0.00  0.00    +0.000 OA
ATOM     23  H   UNL     1      -0.693   1.260  -1.327  0.00  0.00    +0.000 HD
BRANCH  21  24
ATOM     24  O   UNL     1      -1.450   3.146  -1.662  0.00  0.00    +0.000 OA
BRANCH  24  25
ATOM     25  C   UNL     1      -1.941   4.442  -2.010  0.00  0.00    +0.000 C 
BRANCH  25  26
ATOM     26  C   UNL     1      -2.485   5.201  -0.816  0.00  0.00    +0.000 A 
ATOM     27  C   UNL     1      -2.481   6.606  -0.822  0.00  0.00    +0.000 A 
ATOM     28  C   UNL     1      -3.213   7.323   0.128  0.00  0.00    +0.000 A 
ATOM     29  C   UNL     1      -3.758   6.662   1.225  0.00  0.00    +0.000 A 
ATOM     30  C   UNL     1      -3.682   5.274   1.299  0.00  0.00    +0.000 A 
ATOM     31  C   UNL     1      -3.130   4.546   0.241  0.00  0.00    +0.000 A 
ENDBRANCH  25  26
ENDBRANCH  24  25
ENDBRANCH  21  24
ENDBRANCH  19  20
ENDBRANCH  15  19
TORSDOF 5
