REMARK  Name = Metformin
REMARK  2 active torsions:
REMARK  status: ('A' for Active; 'I' for Inactive)
REMARK    1  A    between atoms: C_1  and  N_2
REMARK    2  A    between atoms: N_2  and  C_3
REMARK                            x       y       z     vdW  Elec       q    Type
REMARK                         _______ _______ _______ _____ _____    ______ ____
ROOT
ATOM      1  C   UNL     1       1.098   0.063   0.076  0.00  0.00    +0.000 C 
ATOM      2  N   UNL     1       2.562   0.062  -0.024  0.00  0.00    +0.000 N 
ATOM      3  C   UNL     1       3.254   0.077   1.259  0.00  0.00    +0.000 C 
ATOM      4  C   UNL     1       3.176   0.046  -1.268  0.00  0.00    +0.000 C 
ATOM      5  N   UNL     1       2.488   0.033  -2.375  0.00  0.00    +0.000 NA
ATOM      6  N   UNL     1       4.556   0.045  -1.348  0.00  0.00    +0.000 N 
ATOM      7  C   UNL     1       5.391   0.032  -2.439  0.00  0.00    +0.000 C 
ATOM      8  N   UNL     1       4.779   0.017  -3.633  0.00  0.00    +0.000 N 
ATOM      9  N   UNL     1       6.685   0.032  -2.432  0.00  0.00    +0.000 NA
ATOM     10  H   UNL     1       1.491   0.035  -2.185  0.00  0.00    +0.000 HD
ATOM     11  H   UNL     1       5.043   0.056  -0.471  0.00  0.00    +0.000 HD
ATOM     12  H   UNL     1       3.757   0.017  -3.632  0.00  0.00    +0.000 HD
ATOM     13  H   UNL     1       5.298   0.007  -4.494  0.00  0.00    +0.000 HD
ATOM     14  H   UNL     1       7.060   0.044  -1.489  0.00  0.00    +0.000 HD
ENDROOT
TORSDOF 0
