REMARK  Name = Methylprednisolone aceponate
REMARK  13 active torsions:
REMARK  status: ('A' for Active; 'I' for Inactive)
REMARK    1  A    between atoms: C_5  and  O_6
REMARK    2  A    between atoms: C_5  and  C_11
REMARK    3  A    between atoms: O_6  and  C_7
REMARK    4  A    between atoms: C_7  and  C_9
REMARK    5  A    between atoms: C_9  and  C_10
REMARK    6  A    between atoms: C_11  and  C_13
REMARK    7  A    between atoms: C_13  and  O_14
REMARK    8  A    between atoms: O_14  and  C_15
REMARK    9  A    between atoms: C_15  and  C_16
REMARK   10  A    between atoms: C_18  and  C_19
REMARK   11  A    between atoms: C_21  and  O_22
REMARK   12  A    between atoms: C_28  and  C_29
REMARK   13  A    between atoms: C_36  and  C_37
REMARK                            x       y       z     vdW  Elec       q    Type
REMARK                         _______ _______ _______ _____ _____    ______ ____
ROOT
ATOM      1  C   UNL     1       1.903  -0.111  -0.317  0.00  0.00    +0.000 C 
ATOM      2  C   UNL     1       2.311  -0.120  -1.676  0.00  0.00    +0.000 C 
ATOM      3  C   UNL     1       3.296  -0.475  -0.615  0.00  0.00    +0.000 C 
ATOM      4  C   UNL     1       2.539  -0.982   1.251  0.00  0.00    +0.000 C 
ATOM      5  C   UNL     1       2.784  -1.722   0.135  0.00  0.00    +0.000 C 
ATOM      6  C   UNL     1       2.045  -2.920  -0.345  0.00  0.00    +0.000 C 
ATOM      7  C   UNL     1       4.574  -1.598   0.662  0.00  0.00    +0.000 C 
ATOM      8  C   UNL     1       4.889  -0.110   1.438  0.00  0.00    +0.000 C 
ATOM      9  C   UNL     1       4.327   1.323   0.812  0.00  0.00    +0.000 C 
ATOM     10  C   UNL     1       2.669   1.317   0.591  0.00  0.00    +0.000 C 
ATOM     11  C   UNL     1       2.168   2.557  -0.099  0.00  0.00    +0.000 C 
ATOM     12  C   UNL     1       2.675   3.816   0.571  0.00  0.00    +0.000 C 
ATOM     13  C   UNL     1       2.182   4.968  -0.278  0.00  0.00    +0.000 C 
ATOM     14  C   UNL     1       4.169   3.872   0.809  0.00  0.00    +0.000 C 
ATOM     15  C   UNL     1       4.944   4.945   0.552  0.00  0.00    +0.000 C 
ATOM     16  C   UNL     1       6.337   4.801   1.029  0.00  0.00    +0.000 C 
ATOM     17  O   UNL     1       6.851   5.343   1.996  0.00  0.00    +0.000 OA
ATOM     18  C   UNL     1       7.067   3.742   0.249  0.00  0.00    +0.000 C 
ATOM     19  C   UNL     1       6.426   2.784   0.973  0.00  0.00    +0.000 C 
ATOM     20  C   UNL     1       4.862   2.653   1.432  0.00  0.00    +0.000 C 
ATOM     21  C   UNL     1       4.408   2.635   2.903  0.00  0.00    +0.000 C 
ENDROOT
BRANCH   4  22
ATOM     22  C   UNL     1       2.791  -2.416   2.430  0.00  0.00    +0.000 C 
ATOM     23  O   UNL     1       3.329  -3.478   2.059  0.00  0.00    +0.000 OA
BRANCH  22  24
ATOM     24  C   UNL     1       2.279  -2.542   3.989  0.00  0.00    +0.000 C 
BRANCH  24  25
ATOM     25  O   UNL     1       2.789  -3.855   4.608  0.00  0.00    +0.000 OA
BRANCH  25  26
ATOM     26  C   UNL     1       2.634  -4.393   5.855  0.00  0.00    +0.000 C 
ATOM     27  C   UNL     1       1.812  -3.655   6.869  0.00  0.00    +0.000 C 
ATOM     28  O   UNL     1       3.148  -5.468   6.176  0.00  0.00    +0.000 OA
ENDBRANCH  25  26
ENDBRANCH  24  25
ENDBRANCH  22  24
ENDBRANCH   4  22
BRANCH   8  29
ATOM     29  O   UNL     1       4.426  -0.286   2.794  0.00  0.00    +0.000 OA
ATOM     30  H   UNL     1       3.564   0.148   2.931  0.00  0.00    +0.000 HD
ENDBRANCH   8  29
BRANCH   4  31
ATOM     31  O   UNL     1       0.902  -1.116   1.498  0.00  0.00    +0.000 OA
BRANCH  31  32
ATOM     32  C   UNL     1       0.019  -0.071   1.623  0.00  0.00    +0.000 C 
ATOM     33  O   UNL     1       0.362   1.101   1.719  0.00  0.00    +0.000 OA
BRANCH  32  34
ATOM     34  C   UNL     1      -1.466  -0.333   1.520  0.00  0.00    +0.000 C 
ATOM     35  C   UNL     1      -2.079   0.898   0.805  0.00  0.00    +0.000 C 
ENDBRANCH  32  34
ENDBRANCH  31  32
ENDBRANCH   4  31
TORSDOF 8
