REMARK  Name = Methotrexate
REMARK  12 active torsions:
REMARK  status: ('A' for Active; 'I' for Inactive)
REMARK    1  A    between atoms: C_1  and  N_2
REMARK    2  A    between atoms: N_2  and  C_3
REMARK    3  A    between atoms: N_2  and  C_16
REMARK    4  A    between atoms: C_3  and  C_4
REMARK    5  A    between atoms: C_19  and  C_22
REMARK    6  A    between atoms: N_24  and  CA_25
REMARK    7  A    between atoms: CA_25  and  CB_26
REMARK    8  A    between atoms: CA_25  and  C_31
REMARK    9  A    between atoms: CB_26  and  CG_27
REMARK   10  A    between atoms: CG_27  and  CD_28
REMARK   11  A    between atoms: CD_28  and  OE1_29
REMARK   12  A    between atoms: C_31  and  O_32
REMARK                            x       y       z     vdW  Elec       q    Type
REMARK                         _______ _______ _______ _____ _____    ______ ____
ROOT
ATOM      1  C   UNK A   0       3.189  -1.116   0.365  0.00  0.00    +0.000 A 
ATOM      2  C   UNK A   0       4.211  -1.163   1.314  0.00  0.00    +0.000 A 
ATOM      3  C   UNK A   0       4.715  -2.395   1.748  0.00  0.00    +0.000 A 
ATOM      4  C   UNK A   0       4.425  -3.565   1.035  0.00  0.00    +0.000 A 
ATOM      5  C   UNK A   0       3.454  -3.525   0.043  0.00  0.00    +0.000 A 
ATOM      6  C   UNK A   0       2.807  -2.327  -0.235  0.00  0.00    +0.000 A 
ENDROOT
BRANCH   4   7
ATOM      7  C   UNK A   0       5.265  -4.768   1.273  0.00  0.00    +0.000 C 
ATOM      8  O   UNK A   0       6.265  -4.655   1.975  0.00  0.00    +0.000 OA
ATOM      9  N   GLU A   1       4.888  -5.956   0.667  0.00  0.00    +0.000 N 
ATOM     10  H   GLU A   1       4.158  -5.904  -0.010  0.00  0.00    +0.000 HD
BRANCH   9  11
ATOM     11  CA  GLU A   1       5.559  -7.244   0.916  0.00  0.00    +0.000 C 
BRANCH  11  12
ATOM     12  C   GLU A   1       5.211  -8.394  -0.071  0.00  0.00    +0.000 C 
ATOM     13  OXT GLU A   1       5.692  -9.517   0.030  0.00  0.00    +0.000 OA
BRANCH  12  14
ATOM     14  O   GLU A   1       4.300  -8.142  -1.034  0.00  0.00    +0.000 OA
ATOM     15  H   GLU A   1       3.933  -7.252  -1.118  0.00  0.00    +0.000 HD
ENDBRANCH  12  14
ENDBRANCH  11  12
BRANCH  11  16
ATOM     16  CB  GLU A   1       5.240  -7.786   2.332  0.00  0.00    +0.000 C 
BRANCH  16  17
ATOM     17  CG  GLU A   1       5.617  -6.841   3.467  0.00  0.00    +0.000 C 
BRANCH  17  18
ATOM     18  CD  GLU A   1       5.354  -7.245   4.885  0.00  0.00    +0.000 C 
ATOM     19  OE2 GLU A   1       5.623  -6.500   5.829  0.00  0.00    +0.000 OA
BRANCH  18  20
ATOM     20  OE1 GLU A   1       4.744  -8.424   5.073  0.00  0.00    +0.000 OA
ATOM     21  HE1 GLU A   1       4.561  -8.939   4.269  0.00  0.00    +0.000 HD
ENDBRANCH  18  20
ENDBRANCH  17  18
ENDBRANCH  16  17
ENDBRANCH  11  16
ENDBRANCH   9  11
ENDBRANCH   4   7
BRANCH   1  23
ATOM     22  C   UNK A   0       1.030  -0.116   0.213  0.00  0.00    +0.000 C 
ATOM     23  N   UNK A   0       2.474   0.043   0.084  0.00  0.00    +0.000 N 
BRANCH  23  24
ATOM     24  C   UNK A   0       3.148   1.318  -0.252  0.00  0.00    +0.000 C 
BRANCH  24  25
ATOM     25  C   UNK A   0       2.234   2.482  -0.635  0.00  0.00    +0.000 A 
ATOM     26  C   UNK A   0       2.589   3.801  -0.443  0.00  0.00    +0.000 A 
ATOM     27  N   UNK A   0       1.733   4.840  -0.676  0.00  0.00    +0.000 NA
ATOM     28  C   UNK A   0       0.472   4.567  -1.078  0.00  0.00    +0.000 A 
ATOM     29  N   UNK A   0      -0.405   5.559  -1.262  0.00  0.00    +0.000 NA
ATOM     30  C   UNK A   0      -1.652   5.239  -1.616  0.00  0.00    +0.000 A 
ATOM     31  N   UNK A   0      -2.525   6.259  -1.864  0.00  0.00    +0.000 N 
ATOM     32  N   UNK A   0      -2.111   3.996  -1.749  0.00  0.00    +0.000 NA
ATOM     33  C   UNK A   0      -1.220   3.012  -1.572  0.00  0.00    +0.000 A 
ATOM     34  N   UNK A   0      -1.700   1.710  -1.671  0.00  0.00    +0.000 N 
ATOM     35  C   UNK A   0       0.124   3.238  -1.285  0.00  0.00    +0.000 A 
ATOM     36  N   UNK A   0       1.019   2.221  -1.165  0.00  0.00    +0.000 NA
ATOM     37  H   UNK A   0      -2.185   7.203  -1.801  0.00  0.00    +0.000 HD
ATOM     38  H   UNK A   0      -3.462   6.036  -2.154  0.00  0.00    +0.000 HD
ATOM     39  H   UNK A   0      -2.675   1.556  -1.872  0.00  0.00    +0.000 HD
ATOM     40  H   UNK A   0      -1.064   0.946  -1.491  0.00  0.00    +0.000 HD
ENDBRANCH  24  25
ENDBRANCH  23  24
ENDBRANCH   1  23
TORSDOF 11
