REMARK  Name = Methenamine
REMARK  0 active torsions:
REMARK  status: ('A' for Active; 'I' for Inactive)
REMARK                            x       y       z     vdW  Elec       q    Type
REMARK                         _______ _______ _______ _____ _____    ______ ____
ROOT
ATOM      1  C   UNL     1      -0.730   0.974   1.154  0.00  0.00    +0.000 C 
ATOM      2  N   UNL     1       0.700   0.717   1.066  0.00  0.00    +0.000 NA
ATOM      3  C   UNL     1       1.186   1.164  -0.232  0.00  0.00    +0.000 C 
ATOM      4  N   UNL     1       0.494   0.455  -1.300  0.00  0.00    +0.000 NA
ATOM      5  C   UNL     1      -0.935   0.715  -1.195  0.00  0.00    +0.000 C 
ATOM      6  N   UNL     1      -1.436   0.265   0.096  0.00  0.00    +0.000 NA
ATOM      7  C   UNL     1      -1.186  -1.164   0.232  0.00  0.00    +0.000 C 
ATOM      8  N   UNL     1       0.241  -1.436   0.138  0.00  0.00    +0.000 NA
ATOM      9  C   UNL     1       0.935  -0.715   1.195  0.00  0.00    +0.000 C 
ATOM     10  C   UNL     1       0.730  -0.974  -1.154  0.00  0.00    +0.000 C 
ENDROOT
TORSDOF 0
