REMARK  Name = Methyldopa
REMARK  8 active torsions:
REMARK  status: ('A' for Active; 'I' for Inactive)
REMARK    1  A    between atoms: C_1  and  C_2
REMARK    2  A    between atoms: C_2  and  N_3
REMARK    3  A    between atoms: C_2  and  C_4
REMARK    4  A    between atoms: C_2  and  C_13
REMARK    5  A    between atoms: C_4  and  C_5
REMARK    6  A    between atoms: C_8  and  O_9
REMARK    7  A    between atoms: C_10  and  O_11
REMARK    8  A    between atoms: C_13  and  O_14
REMARK                            x       y       z     vdW  Elec       q    Type
REMARK                         _______ _______ _______ _____ _____    ______ ____
ROOT
ATOM      1  C   UNL     1       3.022  -1.343   0.018  0.00  0.00    +0.000 C 
ENDROOT
BRANCH   1   2
ATOM      2  C   UNL     1       2.560  -2.137   1.237  0.00  0.00    +0.000 A 
ATOM      3  C   UNL     1       1.897  -1.561   2.337  0.00  0.00    +0.000 A 
ATOM      4  C   UNL     1       1.685  -2.244   3.529  0.00  0.00    +0.000 A 
ATOM      5  C   UNL     1       1.998  -3.585   3.579  0.00  0.00    +0.000 A 
ATOM      6  C   UNL     1       2.538  -4.217   2.459  0.00  0.00    +0.000 A 
ATOM      7  C   UNL     1       2.847  -3.504   1.304  0.00  0.00    +0.000 A 
BRANCH   5   8
ATOM      8  O   UNL     1       1.757  -4.319   4.705  0.00  0.00    +0.000 OA
ATOM      9  H   UNL     1       1.391  -3.714   5.375  0.00  0.00    +0.000 HD
ENDBRANCH   5   8
BRANCH   6  10
ATOM     10  O   UNL     1       2.774  -5.561   2.478  0.00  0.00    +0.000 OA
ATOM     11  H   UNL     1       2.471  -5.850   3.361  0.00  0.00    +0.000 HD
ENDBRANCH   6  10
ENDBRANCH   1   2
BRANCH   1  13
ATOM     12  C   UNL     1       3.184   0.979   1.087  0.00  0.00    +0.000 C 
ATOM     13  C   UNL     1       2.582   0.145  -0.069  0.00  0.00    +0.000 C 
BRANCH  13  14
ATOM     14  N   UNL     1       1.099   0.200  -0.097  0.00  0.00    +0.000 NA
ATOM     15  H   UNL     1       0.696  -0.403  -0.813  0.00  0.00    +0.000 HD
ATOM     16  H   UNL     1       0.704   1.131  -0.050  0.00  0.00    +0.000 HD
ENDBRANCH  13  14
BRANCH  13  17
ATOM     17  C   UNL     1       3.165   0.773  -1.362  0.00  0.00    +0.000 C 
ATOM     18  O   UNL     1       4.366   0.870  -1.596  0.00  0.00    +0.000 OA
BRANCH  17  19
ATOM     19  O   UNL     1       2.242   1.266  -2.223  0.00  0.00    +0.000 OA
ATOM     20  H   UNL     1       1.332   1.130  -1.903  0.00  0.00    +0.000 HD
ENDBRANCH  17  19
ENDBRANCH  13  17
ENDBRANCH   1  13
TORSDOF 7
