REMARK  Name = Methyprylon
REMARK  5 active torsions:
REMARK  status: ('A' for Active; 'I' for Inactive)
REMARK    1  A    between atoms: C_1  and  C_2
REMARK    2  A    between atoms: C_2  and  C_3
REMARK    3  A    between atoms: C_3  and  C_4
REMARK    4  A    between atoms: C_4  and  C_5
REMARK    5  A    between atoms: C_10  and  C_11
REMARK                            x       y       z     vdW  Elec       q    Type
REMARK                         _______ _______ _______ _____ _____    ______ ____
ROOT
ATOM      1  C   UNL     1       3.016   1.254   0.718  0.00  0.00    +0.000 C 
ATOM      2  C   UNL     1       4.496   0.873   0.671  0.00  0.00    +0.000 C 
ATOM      3  O   UNL     1       5.134   0.418   1.618  0.00  0.00    +0.000 OA
ATOM      4  N   UNL     1       4.957   0.778  -0.630  0.00  0.00    +0.000 N 
ATOM      5  C   UNL     1       4.716   1.844  -1.571  0.00  0.00    +0.000 C 
ATOM      6  C   UNL     1       3.268   2.302  -1.628  0.00  0.00    +0.000 C 
ATOM      7  C   UNL     1       3.141   3.629  -2.359  0.00  0.00    +0.000 C 
ATOM      8  C   UNL     1       2.763   2.439  -0.216  0.00  0.00    +0.000 C 
ATOM      9  O   UNL     1       2.121   3.436   0.118  0.00  0.00    +0.000 OA
ATOM     10  H   UNL     1       5.300  -0.130  -0.931  0.00  0.00    +0.000 HD
ENDROOT
BRANCH   1  12
ATOM     11  C   UNL     1       0.850  -0.057   0.098  0.00  0.00    +0.000 C 
ATOM     12  C   UNL     1       2.358  -0.045   0.135  0.00  0.00    +0.000 C 
ENDBRANCH   1  12
BRANCH   1  13
ATOM     13  C   UNL     1       2.458   1.580   2.121  0.00  0.00    +0.000 C 
ATOM     14  C   UNL     1       3.049   2.827   2.779  0.00  0.00    +0.000 C 
ENDBRANCH   1  13
TORSDOF 2
