REMARK  Name = Methimazole
REMARK  1 active torsions:
REMARK  status: ('A' for Active; 'I' for Inactive)
REMARK    1  A    between atoms: C_1  and  N_2
REMARK                            x       y       z     vdW  Elec       q    Type
REMARK                         _______ _______ _______ _____ _____    ______ ____
ROOT
ATOM      1  C   UNL     1       0.174  -2.210  -0.030  0.00  0.00    +0.000 C 
ATOM      2  N   UNL     1       0.587  -0.829   0.016  0.00  0.00    +0.000 N 
ATOM      3  C   UNL     1       1.896  -0.390   0.012  0.00  0.00    +0.000 A 
ATOM      4  C   UNL     1       1.905   0.950  -0.004  0.00  0.00    +0.000 A 
ATOM      5  N   UNL     1       0.608   1.398  -0.011  0.00  0.00    +0.000 N 
ATOM      6  C   UNL     1      -0.263   0.297   0.001  0.00  0.00    +0.000 A 
ATOM      7  S   UNL     1      -1.913   0.386  -0.010  0.00  0.00    +0.000 S 
ATOM      8  H   UNL     1       0.305   2.361  -0.035  0.00  0.00    +0.000 HD
ENDROOT
TORSDOF 0
