REMARK  Name = Methyl nicotinate
REMARK  3 active torsions:
REMARK  status: ('A' for Active; 'I' for Inactive)
REMARK    1  A    between atoms: C_1  and  O_2
REMARK    2  A    between atoms: O_2  and  C_3
REMARK    3  A    between atoms: C_3  and  C_5
REMARK                            x       y       z     vdW  Elec       q    Type
REMARK                         _______ _______ _______ _____ _____    ______ ____
ROOT
ATOM      1  C   UNL     1       4.583   1.118  -0.634  0.00  0.00    +0.000 A 
ATOM      2  C   UNL     1       5.293   2.277  -0.345  0.00  0.00    +0.000 A 
ATOM      3  N   UNL     1       6.650   2.360  -0.345  0.00  0.00    +0.000 NA
ATOM      4  C   UNL     1       7.327   1.237  -0.668  0.00  0.00    +0.000 A 
ATOM      5  C   UNL     1       6.709   0.034  -0.977  0.00  0.00    +0.000 A 
ATOM      6  C   UNL     1       5.312  -0.027  -0.956  0.00  0.00    +0.000 A 
ENDROOT
BRANCH   1   7
ATOM      7  C   UNL     1       3.108   1.181  -0.675  0.00  0.00    +0.000 C 
ATOM      8  O   UNL     1       2.504   2.141  -1.132  0.00  0.00    +0.000 OA
BRANCH   7  10
ATOM      9  C   UNL     1       1.110   0.106  -0.086  0.00  0.00    +0.000 C 
ATOM     10  O   UNL     1       2.547   0.081  -0.113  0.00  0.00    +0.000 OA
ENDBRANCH   7  10
ENDBRANCH   1   7
TORSDOF 2
