REMARK  Name = Methoxamine
REMARK  9 active torsions:
REMARK  status: ('A' for Active; 'I' for Inactive)
REMARK    1  A    between atoms: C_1  and  O_2
REMARK    2  A    between atoms: O_2  and  C_3
REMARK    3  A    between atoms: C_5  and  C_6
REMARK    4  A    between atoms: C_6  and  O_7
REMARK    5  A    between atoms: C_6  and  C_8
REMARK    6  A    between atoms: C_8  and  C_9
REMARK    7  A    between atoms: C_8  and  N_10
REMARK    8  A    between atoms: C_11  and  O_12
REMARK    9  A    between atoms: O_12  and  C_13
REMARK                            x       y       z     vdW  Elec       q    Type
REMARK                         _______ _______ _______ _____ _____    ______ ____
ROOT
ATOM      1  C   UNL     1       2.909   0.863  -0.808  0.00  0.00    +0.000 A 
ATOM      2  C   UNL     1       4.027   0.548  -1.588  0.00  0.00    +0.000 A 
ATOM      3  C   UNL     1       4.648   1.544  -2.369  0.00  0.00    +0.000 A 
ATOM      4  C   UNL     1       4.022   2.804  -2.472  0.00  0.00    +0.000 A 
ATOM      5  C   UNL     1       3.000   3.144  -1.591  0.00  0.00    +0.000 A 
ATOM      6  C   UNL     1       2.466   2.179  -0.751  0.00  0.00    +0.000 A 
ENDROOT
BRANCH   1   8
ATOM      7  C   UNL     1       0.936  -0.088   0.008  0.00  0.00    +0.000 C 
ATOM      8  O   UNL     1       2.363  -0.139  -0.053  0.00  0.00    +0.000 OA
ENDBRANCH   1   8
BRANCH   4   9
ATOM      9  O   UNL     1       4.434   3.647  -3.461  0.00  0.00    +0.000 OA
ATOM     10  C   UNL     1       4.134   5.032  -3.374  0.00  0.00    +0.000 C 
ENDBRANCH   4   9
BRANCH   3  11
ATOM     11  C   UNL     1       6.037   1.247  -2.942  0.00  0.00    +0.000 C 
BRANCH  11  12
ATOM     12  O   UNL     1       5.905   0.205  -3.912  0.00  0.00    +0.000 OA
ATOM     13  H   UNL     1       5.414   0.588  -4.657  0.00  0.00    +0.000 HD
ENDBRANCH  11  12
BRANCH  11  14
ATOM     14  C   UNL     1       6.823   2.481  -3.514  0.00  0.00    +0.000 C 
ATOM     15  C   UNL     1       7.081   3.554  -2.433  0.00  0.00    +0.000 C 
BRANCH  14  16
ATOM     16  N   UNL     1       8.124   2.161  -4.128  0.00  0.00    +0.000 NA
ATOM     17  H   UNL     1       8.769   1.848  -3.406  0.00  0.00    +0.000 HD
ATOM     18  H   UNL     1       8.514   3.024  -4.509  0.00  0.00    +0.000 HD
ENDBRANCH  14  16
ENDBRANCH  11  14
ENDBRANCH   3  11
TORSDOF 6
