REMARK  Name = Methscopolamine
REMARK  8 active torsions:
REMARK  status: ('A' for Active; 'I' for Inactive)
REMARK    1  A    between atoms: C_1  and  N_2
REMARK    2  A    between atoms: N_2  and  C_3
REMARK    3  A    between atoms: C_6  and  O_12
REMARK    4  A    between atoms: O_12  and  C_13
REMARK    5  A    between atoms: C_13  and  C_15
REMARK    6  A    between atoms: C_15  and  C_16
REMARK    7  A    between atoms: C_15  and  C_18
REMARK    8  A    between atoms: C_16  and  O_17
REMARK                            x       y       z     vdW  Elec       q    Type
REMARK                         _______ _______ _______ _____ _____    ______ ____
ROOT
ATOM      1  O   UNL     1       2.244  -1.632  -2.377  0.00  0.00    +0.000 OA
ENDROOT
BRANCH   1   7
ATOM      2  C   UNL     1       6.081  -3.691  -1.574  0.00  0.00    +0.000 C 
ATOM      3  N   UNL     1       6.110  -2.382  -0.835  0.00  0.00    +0.000 N 
ATOM      4  C   UNL     1       7.485  -2.307  -0.115  0.00  0.00    +0.000 C 
ATOM      5  C   UNL     1       4.986  -2.156   0.203  0.00  0.00    +0.000 C 
ATOM      6  C   UNL     1       3.607  -2.332  -0.468  0.00  0.00    +0.000 C 
ATOM      7  C   UNL     1       3.412  -1.339  -1.599  0.00  0.00    +0.000 C 
ATOM      8  C   UNL     1       4.650  -1.203  -2.497  0.00  0.00    +0.000 C 
ATOM      9  C   UNL     1       5.947  -1.104  -1.681  0.00  0.00    +0.000 C 
ATOM     10  C   UNL     1       5.908  -0.013  -0.609  0.00  0.00    +0.000 C 
ATOM     11  O   UNL     1       4.695   0.380  -0.010  0.00  0.00    +0.000 OA
ATOM     12  C   UNL     1       5.266  -0.721   0.658  0.00  0.00    +0.000 C 
ENDBRANCH   1   7
BRANCH   1  13
ATOM     13  C   UNL     1       1.061  -0.934  -2.309  0.00  0.00    +0.000 C 
ATOM     14  O   UNL     1       0.170  -1.236  -3.077  0.00  0.00    +0.000 OA
BRANCH  13  15
ATOM     15  C   UNL     1       0.905   0.163  -1.237  0.00  0.00    +0.000 C 
BRANCH  15  16
ATOM     16  C   UNL     1       1.804   1.390  -1.389  0.00  0.00    +0.000 A 
ATOM     17  C   UNL     1       2.778   1.508  -2.393  0.00  0.00    +0.000 A 
ATOM     18  C   UNL     1       3.766   2.485  -2.318  0.00  0.00    +0.000 A 
ATOM     19  C   UNL     1       3.636   3.514  -1.397  0.00  0.00    +0.000 A 
ATOM     20  C   UNL     1       2.600   3.488  -0.469  0.00  0.00    +0.000 A 
ATOM     21  C   UNL     1       1.744   2.396  -0.416  0.00  0.00    +0.000 A 
ENDBRANCH  15  16
BRANCH  15  22
ATOM     22  C   UNL     1      -0.591   0.529  -1.031  0.00  0.00    +0.000 C 
BRANCH  22  23
ATOM     23  O   UNL     1      -0.914   1.915  -1.140  0.00  0.00    +0.000 OA
ATOM     24  H   UNL     1      -0.614   2.237  -2.009  0.00  0.00    +0.000 HD
ENDBRANCH  22  23
ENDBRANCH  15  22
ENDBRANCH  13  15
ENDBRANCH   1  13
TORSDOF 6
