REMARK  Name = Methotrimeprazine
REMARK  9 active torsions:
REMARK  status: ('A' for Active; 'I' for Inactive)
REMARK    1  A    between atoms: C_1  and  O_2
REMARK    2  A    between atoms: O_2  and  C_3
REMARK    3  A    between atoms: N_14  and  C_15
REMARK    4  A    between atoms: C_15  and  C_16
REMARK    5  A    between atoms: C_16  and  C_17
REMARK    6  A    between atoms: C_16  and  C_18
REMARK    7  A    between atoms: C_18  and  N_19
REMARK    8  A    between atoms: N_19  and  C_20
REMARK    9  A    between atoms: N_19  and  C_21
REMARK                            x       y       z     vdW  Elec       q    Type
REMARK                         _______ _______ _______ _____ _____    ______ ____
ROOT
ATOM      1  C   UNL     1       3.812 -11.446   1.590  0.00  0.00    +0.000 A 
ATOM      2  C   UNL     1       3.552 -10.270   0.871  0.00  0.00    +0.000 A 
ATOM      3  C   UNL     1       2.293  -9.879   0.877  0.00  0.00    +0.000 A 
ATOM      4  C   UNL     1       1.125 -10.867   1.649  0.00  0.00    +0.000 A 
ATOM      5  S   UNL     1      -1.002 -11.260   0.984  0.00  0.00    +0.000 S 
ATOM      6  C   UNL     1      -0.732 -10.617  -1.258  0.00  0.00    +0.000 A 
ATOM      7  C   UNL     1       0.608  -9.658  -1.774  0.00  0.00    +0.000 A 
ATOM      8  C   UNL     1       0.452  -8.911  -3.050  0.00  0.00    +0.000 A 
ATOM      9  C   UNL     1      -0.883  -9.227  -3.579  0.00  0.00    +0.000 A 
ATOM     10  C   UNL     1      -2.068 -10.060  -3.009  0.00  0.00    +0.000 A 
ATOM     11  C   UNL     1      -2.062 -10.740  -1.748  0.00  0.00    +0.000 A 
ATOM     12  N   UNL     1       2.017  -9.104  -0.792  0.00  0.00    +0.000 N 
ATOM     13  C   UNL     1       1.469 -11.989   2.343  0.00  0.00    +0.000 A 
ATOM     14  C   UNL     1       2.830 -12.258   2.289  0.00  0.00    +0.000 A 
ENDROOT
BRANCH   1  16
ATOM     15  C   UNL     1       6.035 -10.880   1.739  0.00  0.00    +0.000 C 
ATOM     16  O   UNL     1       5.093 -11.945   1.585  0.00  0.00    +0.000 OA
ENDBRANCH   1  16
BRANCH  12  17
ATOM     17  C   UNL     1       2.330  -7.611  -0.278  0.00  0.00    +0.000 C 
BRANCH  17  18
ATOM     18  C   UNL     1       1.452  -6.567  -0.879  0.00  0.00    +0.000 C 
ATOM     19  C   UNL     1       1.652  -5.138  -0.352  0.00  0.00    +0.000 C 
BRANCH  18  20
ATOM     20  C   UNL     1       0.014  -6.846  -0.530  0.00  0.00    +0.000 C 
BRANCH  20  21
ATOM     21  N   UNL     1      -0.560  -8.116  -0.233  0.00  0.00    +0.000 NA
ATOM     22  C   UNL     1       0.160  -9.275   0.250  0.00  0.00    +0.000 C 
ATOM     23  C   UNL     1      -1.870  -8.080  -0.815  0.00  0.00    +0.000 C 
ENDBRANCH  20  21
ENDBRANCH  18  20
ENDBRANCH  17  18
ENDBRANCH  12  17
TORSDOF 5
