REMARK  Name = Methsuximide
REMARK  3 active torsions:
REMARK  status: ('A' for Active; 'I' for Inactive)
REMARK    1  A    between atoms: C_1  and  N_2
REMARK    2  A    between atoms: C_6  and  C_7
REMARK    3  A    between atoms: C_6  and  C_10
REMARK                            x       y       z     vdW  Elec       q    Type
REMARK                         _______ _______ _______ _____ _____    ______ ____
ROOT
ATOM      1  C   UNL     1       1.185   0.073   0.127  0.00  0.00    +0.000 C 
ATOM      2  N   UNL     1       2.624   0.076  -0.018  0.00  0.00    +0.000 N 
ATOM      3  C   UNL     1       3.403   1.187   0.032  0.00  0.00    +0.000 C 
ATOM      4  O   UNL     1       3.166   2.245   0.600  0.00  0.00    +0.000 OA
ATOM      5  C   UNL     1       4.630   0.890  -0.772  0.00  0.00    +0.000 C 
ATOM      6  C   UNL     1       4.798  -0.630  -0.579  0.00  0.00    +0.000 C 
ATOM      7  C   UNL     1       5.873  -0.860   0.495  0.00  0.00    +0.000 C 
ATOM      8  C   UNL     1       3.404  -1.045  -0.088  0.00  0.00    +0.000 C 
ATOM      9  O   UNL     1       3.055  -2.181   0.203  0.00  0.00    +0.000 OA
ENDROOT
BRANCH   6  10
ATOM     10  C   UNL     1       5.139  -1.341  -1.892  0.00  0.00    +0.000 A 
ATOM     11  C   UNL     1       6.293  -2.135  -2.019  0.00  0.00    +0.000 A 
ATOM     12  C   UNL     1       6.643  -2.719  -3.230  0.00  0.00    +0.000 A 
ATOM     13  C   UNL     1       5.794  -2.602  -4.321  0.00  0.00    +0.000 A 
ATOM     14  C   UNL     1       4.626  -1.851  -4.216  0.00  0.00    +0.000 A 
ATOM     15  C   UNL     1       4.304  -1.217  -3.015  0.00  0.00    +0.000 A 
ENDBRANCH   6  10
TORSDOF 1
