REMARK  Name = Methacholine
REMARK  9 active torsions:
REMARK  status: ('A' for Active; 'I' for Inactive)
REMARK    1  A    between atoms: C_1  and  C_2
REMARK    2  A    between atoms: C_2  and  C_3
REMARK    3  A    between atoms: C_2  and  O_8
REMARK    4  A    between atoms: C_3  and  N_4
REMARK    5  A    between atoms: N_4  and  C_5
REMARK    6  A    between atoms: N_4  and  C_6
REMARK    7  A    between atoms: N_4  and  C_7
REMARK    8  A    between atoms: O_8  and  C_9
REMARK    9  A    between atoms: C_9  and  C_10
REMARK                            x       y       z     vdW  Elec       q    Type
REMARK                         _______ _______ _______ _____ _____    ______ ____
ROOT
ATOM      1  C   UNL     1       0.950   0.148  -0.225  0.00  0.00    +0.000 C 
ATOM      2  C   UNL     1       2.458  -0.009  -0.012  0.00  0.00    +0.000 C 
ENDROOT
BRANCH   2   3
ATOM      3  C   UNL     1       2.829  -1.325   0.723  0.00  0.00    +0.000 C 
BRANCH   3   4
ATOM      4  N   UNL     1       2.417  -1.389   2.200  0.00  0.00    +0.000 N 
ATOM      5  C   UNL     1       2.952  -0.186   2.972  0.00  0.00    +0.000 C 
ATOM      6  C   UNL     1       0.913  -1.502   2.366  0.00  0.00    +0.000 C 
ATOM      7  C   UNL     1       3.010  -2.664   2.804  0.00  0.00    +0.000 C 
ENDBRANCH   3   4
ENDBRANCH   2   3
BRANCH   2   8
ATOM      8  O   UNL     1       3.049  -0.009  -1.331  0.00  0.00    +0.000 OA
BRANCH   8   9
ATOM      9  C   UNL     1       4.373   0.107  -1.596  0.00  0.00    +0.000 C 
ATOM     10  C   UNL     1       5.352   0.120  -0.452  0.00  0.00    +0.000 C 
ATOM     11  O   UNL     1       4.764   0.127  -2.750  0.00  0.00    +0.000 OA
ENDBRANCH   8   9
ENDBRANCH   2   8
TORSDOF 4
