REMARK  Name = Methylphenidate
REMARK  5 active torsions:
REMARK  status: ('A' for Active; 'I' for Inactive)
REMARK    1  A    between atoms: C_1  and  O_2
REMARK    2  A    between atoms: O_2  and  C_3
REMARK    3  A    between atoms: C_3  and  C_5
REMARK    4  A    between atoms: C_5  and  C_6
REMARK    5  A    between atoms: C_5  and  C_12
REMARK                            x       y       z     vdW  Elec       q    Type
REMARK                         _______ _______ _______ _____ _____    ______ ____
ROOT
ATOM      1  C   UNL     1       4.629   1.325   0.108  0.00  0.00    +0.000 C 
ENDROOT
BRANCH   1   2
ATOM      2  C   UNL     1       5.159   0.722  -1.227  0.00  0.00    +0.000 C 
ATOM      3  C   UNL     1       5.183  -0.817  -1.143  0.00  0.00    +0.000 C 
ATOM      4  C   UNL     1       5.625  -1.439  -2.460  0.00  0.00    +0.000 C 
ATOM      5  C   UNL     1       6.958  -0.857  -2.911  0.00  0.00    +0.000 C 
ATOM      6  C   UNL     1       6.916   0.665  -2.913  0.00  0.00    +0.000 C 
ATOM      7  N   UNL     1       6.535   1.156  -1.591  0.00  0.00    +0.000 NA
ATOM      8  H   UNL     1       6.583   2.178  -1.599  0.00  0.00    +0.000 HD
ENDBRANCH   1   2
BRANCH   1   9
ATOM      9  C   UNL     1       5.157   2.750   0.300  0.00  0.00    +0.000 A 
ATOM     10  C   UNL     1       6.302   3.001   1.070  0.00  0.00    +0.000 A 
ATOM     11  C   UNL     1       6.692   4.315   1.328  0.00  0.00    +0.000 A 
ATOM     12  C   UNL     1       5.987   5.380   0.764  0.00  0.00    +0.000 A 
ATOM     13  C   UNL     1       4.903   5.136  -0.069  0.00  0.00    +0.000 A 
ATOM     14  C   UNL     1       4.517   3.830  -0.327  0.00  0.00    +0.000 A 
ENDBRANCH   1   9
BRANCH   1  15
ATOM     15  C   UNL     1       3.075   1.304   0.177  0.00  0.00    +0.000 C 
ATOM     16  O   UNL     1       2.356   2.282   0.387  0.00  0.00    +0.000 OA
BRANCH  15  18
ATOM     17  C   UNL     1       1.107   0.074  -0.015  0.00  0.00    +0.000 C 
ATOM     18  O   UNL     1       2.541   0.066  -0.005  0.00  0.00    +0.000 OA
ENDBRANCH  15  18
ENDBRANCH   1  15
TORSDOF 4
