REMARK  Name = Methyltestosterone
REMARK  4 active torsions:
REMARK  status: ('A' for Active; 'I' for Inactive)
REMARK    1  A    between atoms: C_5  and  C_6
REMARK    2  A    between atoms: C_5  and  O_7
REMARK    3  A    between atoms: C_8  and  C_9
REMARK    4  A    between atoms: C_24  and  C_25
REMARK                            x       y       z     vdW  Elec       q    Type
REMARK                         _______ _______ _______ _____ _____    ______ ____
ROOT
ATOM      1  C   UNL     1       1.707  -0.075  -0.134  0.00  0.00    +0.000 C 
ATOM      2  C   UNL     1       2.116  -0.084  -1.494  0.00  0.00    +0.000 C 
ATOM      3  C   UNL     1       3.157  -0.412  -0.493  0.00  0.00    +0.000 C 
ATOM      4  C   UNL     1       2.392  -0.872   1.393  0.00  0.00    +0.000 C 
ATOM      5  C   UNL     1       0.797  -1.036   1.888  0.00  0.00    +0.000 C 
ATOM      6  C   UNL     1       2.621  -1.686   0.291  0.00  0.00    +0.000 C 
ATOM      7  C   UNL     1       1.966  -2.926  -0.145  0.00  0.00    +0.000 C 
ATOM      8  C   UNL     1       4.433  -1.608   0.788  0.00  0.00    +0.000 C 
ATOM      9  C   UNL     1       4.799  -0.078   1.532  0.00  0.00    +0.000 C 
ATOM     10  C   UNL     1       4.194   1.357   0.948  0.00  0.00    +0.000 C 
ATOM     11  C   UNL     1       2.464   1.357   0.763  0.00  0.00    +0.000 C 
ATOM     12  C   UNL     1       1.987   2.595   0.049  0.00  0.00    +0.000 C 
ATOM     13  C   UNL     1       2.528   3.845   0.685  0.00  0.00    +0.000 C 
ATOM     14  C   UNL     1       4.010   3.884   0.918  0.00  0.00    +0.000 C 
ATOM     15  C   UNL     1       4.685   5.012   0.656  0.00  0.00    +0.000 C 
ATOM     16  C   UNL     1       6.016   5.055   1.256  0.00  0.00    +0.000 C 
ATOM     17  O   UNL     1       6.253   5.246   2.447  0.00  0.00    +0.000 OA
ATOM     18  C   UNL     1       6.987   4.357   0.446  0.00  0.00    +0.000 C 
ATOM     19  C   UNL     1       6.448   2.895   1.119  0.00  0.00    +0.000 C 
ATOM     20  C   UNL     1       4.740   2.695   1.551  0.00  0.00    +0.000 C 
ATOM     21  C   UNL     1       4.281   2.611   3.029  0.00  0.00    +0.000 C 
ENDROOT
BRANCH   4  22
ATOM     22  O   UNL     1       2.931  -1.813   2.399  0.00  0.00    +0.000 OA
ATOM     23  H   UNL     1       2.323  -1.998   3.137  0.00  0.00    +0.000 HD
ENDBRANCH   4  22
TORSDOF 1
