REMARK  Name = Methylphenobarbital
REMARK  4 active torsions:
REMARK  status: ('A' for Active; 'I' for Inactive)
REMARK    1  A    between atoms: C_1  and  C_2
REMARK    2  A    between atoms: C_2  and  C_3
REMARK    3  A    between atoms: C_3  and  C_13
REMARK    4  A    between atoms: N_9  and  C_10
REMARK                            x       y       z     vdW  Elec       q    Type
REMARK                         _______ _______ _______ _____ _____    ______ ____
ROOT
ATOM      1  C   UNL     1       3.030   1.293   0.557  0.00  0.00    +0.000 C 
ATOM      2  C   UNL     1       2.136   2.503   0.270  0.00  0.00    +0.000 C 
ATOM      3  O   UNL     1       0.906   2.512   0.309  0.00  0.00    +0.000 OA
ATOM      4  N   UNL     1       2.774   3.693   0.128  0.00  0.00    +0.000 N 
ATOM      5  C   UNL     1       4.049   3.871  -0.303  0.00  0.00    +0.000 C 
ATOM      6  O   UNL     1       4.425   5.001  -0.582  0.00  0.00    +0.000 OA
ATOM      7  N   UNL     1       4.817   2.736  -0.449  0.00  0.00    +0.000 N 
ATOM      8  C   UNL     1       6.148   2.878  -1.014  0.00  0.00    +0.000 C 
ATOM      9  C   UNL     1       4.407   1.452  -0.118  0.00  0.00    +0.000 C 
ATOM     10  O   UNL     1       5.156   0.483  -0.293  0.00  0.00    +0.000 OA
ATOM     11  H   UNL     1       2.179   4.507   0.088  0.00  0.00    +0.000 HD
ENDROOT
BRANCH   1  12
ATOM     12  C   UNL     1       3.154   1.206   2.097  0.00  0.00    +0.000 A 
ATOM     13  C   UNL     1       4.382   1.285   2.768  0.00  0.00    +0.000 A 
ATOM     14  C   UNL     1       4.444   1.097   4.150  0.00  0.00    +0.000 A 
ATOM     15  C   UNL     1       3.281   0.907   4.892  0.00  0.00    +0.000 A 
ATOM     16  C   UNL     1       2.050   0.885   4.256  0.00  0.00    +0.000 A 
ATOM     17  C   UNL     1       1.991   1.045   2.877  0.00  0.00    +0.000 A 
ENDBRANCH   1  12
BRANCH   1  19
ATOM     18  C   UNL     1       0.957  -0.230  -0.058  0.00  0.00    +0.000 C 
ATOM     19  C   UNL     1       2.469  -0.068   0.012  0.00  0.00    +0.000 C 
ENDBRANCH   1  19
TORSDOF 2
