REMARK  Name = Methylene blue
REMARK  6 active torsions:
REMARK  status: ('A' for Active; 'I' for Inactive)
REMARK    1  A    between atoms: C_2  and  N_3
REMARK    2  A    between atoms: N_3  and  C_4
REMARK    3  A    between atoms: N_3  and  C_5
REMARK    4  A    between atoms: C_13  and  N_15
REMARK    5  A    between atoms: N_15  and  C_16
REMARK    6  A    between atoms: N_15  and  C_17
REMARK                            x       y       z     vdW  Elec       q    Type
REMARK                         _______ _______ _______ _____ _____    ______ ____
ROOT
ATOM      1 CL   UNL     1       0.506   3.154   0.983  0.00  0.00    +0.000 Cl
ENDROOT
TORSDOF 0
REMARK  Name = Methylene blue
REMARK  6 active torsions:
REMARK  status: ('A' for Active; 'I' for Inactive)
REMARK    1  A    between atoms: C_2  and  N_3
REMARK    2  A    between atoms: N_3  and  C_4
REMARK    3  A    between atoms: N_3  and  C_5
REMARK    4  A    between atoms: C_13  and  N_15
REMARK    5  A    between atoms: N_15  and  C_16
REMARK    6  A    between atoms: N_15  and  C_17
REMARK                            x       y       z     vdW  Elec       q    Type
REMARK                         _______ _______ _______ _____ _____    ______ ____
ROOT
ATOM      1  C   UNL     2       3.153   0.493   1.023  0.00  0.00    +0.000 A 
ATOM      2  C   UNL     2       4.151   1.390   0.609  0.00  0.00    +0.000 A 
ATOM      3  C   UNL     2       4.811   2.280   1.498  0.00  0.00    +0.000 A 
ATOM      4  S   UNL     2       6.032   3.399   0.803  0.00  0.00    +0.000 S 
ATOM      5  C   UNL     2       6.590   4.287   2.258  0.00  0.00    +0.000 A 
ATOM      6  C   UNL     2       6.064   4.011   3.532  0.00  0.00    +0.000 A 
ATOM      7  C   UNL     2       6.603   4.754   4.564  0.00  0.00    +0.000 A 
ATOM      8  C   UNL     2       7.615   5.719   4.377  0.00  0.00    +0.000 A 
ATOM      9  C   UNL     2       8.156   6.009   3.115  0.00  0.00    +0.000 A 
ATOM     10  C   UNL     2       7.599   5.258   2.071  0.00  0.00    +0.000 A 
ATOM     11  N   UNL     2       5.115   3.096   3.816  0.00  0.00    +0.000 NA
ATOM     12  C   UNL     2       4.521   2.306   2.879  0.00  0.00    +0.000 A 
ATOM     13  C   UNL     2       3.538   1.423   3.280  0.00  0.00    +0.000 A 
ATOM     14  C   UNL     2       2.864   0.541   2.393  0.00  0.00    +0.000 A 
ENDROOT
BRANCH   1  16
ATOM     15  C   UNL     2       1.040  -0.393   0.034  0.00  0.00    +0.000 C 
ATOM     16  N   UNL     2       2.510  -0.403   0.160  0.00  0.00    +0.000 N 
ATOM     17  C   UNL     2       3.234  -0.912  -0.992  0.00  0.00    +0.000 C 
ENDBRANCH   1  16
BRANCH   9  18
ATOM     18  N   UNL     2       9.157   6.947   2.916  0.00  0.00    +0.000 N 
ATOM     19  C   UNL     2       9.711   7.252   1.593  0.00  0.00    +0.000 C 
ATOM     20  C   UNL     2       9.739   7.741   3.998  0.00  0.00    +0.000 C 
ENDBRANCH   9  18
TORSDOF 2
