REMARK  Name = Methantheline
REMARK  10 active torsions:
REMARK  status: ('A' for Active; 'I' for Inactive)
REMARK    1  A    between atoms: C_1  and  C_2
REMARK    2  A    between atoms: C_2  and  N_3
REMARK    3  A    between atoms: N_3  and  C_4
REMARK    4  A    between atoms: N_3  and  C_5
REMARK    5  A    between atoms: N_3  and  C_7
REMARK    6  A    between atoms: C_5  and  C_6
REMARK    7  A    between atoms: C_7  and  C_8
REMARK    8  A    between atoms: C_8  and  O_9
REMARK    9  A    between atoms: O_9  and  C_10
REMARK   10  A    between atoms: C_10  and  C_12
REMARK                            x       y       z     vdW  Elec       q    Type
REMARK                         _______ _______ _______ _____ _____    ______ ____
ROOT
ATOM      1  C   UNL     1       8.651   3.147   2.744  0.00  0.00    +0.000 C 
ATOM      2  C   UNL     1       9.166   2.097   3.707  0.00  0.00    +0.000 A 
ATOM      3  C   UNL     1       8.763   0.753   3.611  0.00  0.00    +0.000 A 
ATOM      4  C   UNL     1       9.227  -0.199   4.520  0.00  0.00    +0.000 A 
ATOM      5  C   UNL     1      10.119   0.171   5.521  0.00  0.00    +0.000 A 
ATOM      6  C   UNL     1      10.545   1.493   5.612  0.00  0.00    +0.000 A 
ATOM      7  C   UNL     1      10.069   2.449   4.713  0.00  0.00    +0.000 A 
ATOM      8  O   UNL     1      10.548   3.718   4.903  0.00  0.00    +0.000 OA
ATOM      9  C   UNL     1      10.090   4.725   4.096  0.00  0.00    +0.000 A 
ATOM     10  C   UNL     1      10.569   6.002   4.397  0.00  0.00    +0.000 A 
ATOM     11  C   UNL     1      10.164   7.098   3.640  0.00  0.00    +0.000 A 
ATOM     12  C   UNL     1       9.284   6.917   2.577  0.00  0.00    +0.000 A 
ATOM     13  C   UNL     1       8.810   5.641   2.271  0.00  0.00    +0.000 A 
ATOM     14  C   UNL     1       9.199   4.529   3.039  0.00  0.00    +0.000 A 
ENDROOT
BRANCH   1  15
ATOM     15  C   UNL     1       7.118   3.171   2.740  0.00  0.00    +0.000 C 
ATOM     16  O   UNL     1       6.407   3.908   3.406  0.00  0.00    +0.000 OA
BRANCH  15  17
ATOM     17  O   UNL     1       6.602   2.227   1.872  0.00  0.00    +0.000 OA
BRANCH  17  18
ATOM     18  C   UNL     1       5.171   2.229   1.905  0.00  0.00    +0.000 C 
BRANCH  18  19
ATOM     19  C   UNL     1       4.570   1.151   0.985  0.00  0.00    +0.000 C 
BRANCH  19  20
ATOM     20  N   UNL     1       2.981   1.152   0.971  0.00  0.00    +0.000 N 
ATOM     21  C   UNL     1       2.527   2.521   0.460  0.00  0.00    +0.000 C 
BRANCH  20  23
ATOM     22  C   UNL     1       1.044  -0.056  -0.261  0.00  0.00    +0.000 C 
ATOM     23  C   UNL     1       2.546   0.038  -0.024  0.00  0.00    +0.000 C 
ENDBRANCH  20  23
BRANCH  20  24
ATOM     24  C   UNL     1       2.497   0.870   2.412  0.00  0.00    +0.000 C 
ATOM     25  C   UNL     1       0.998   0.941   2.628  0.00  0.00    +0.000 C 
ENDBRANCH  20  24
ENDBRANCH  19  20
ENDBRANCH  18  19
ENDBRANCH  17  18
ENDBRANCH  15  17
ENDBRANCH   1  15
TORSDOF 7
