REMARK  Name = Methoxsalen
REMARK  2 active torsions:
REMARK  status: ('A' for Active; 'I' for Inactive)
REMARK    1  A    between atoms: C_1  and  O_2
REMARK    2  A    between atoms: O_2  and  C_3
REMARK                            x       y       z     vdW  Elec       q    Type
REMARK                         _______ _______ _______ _____ _____    ______ ____
ROOT
ATOM      1  C   UNL     1       3.129  -1.102  -0.210  0.00  0.00    +0.000 A 
ATOM      2  C   UNL     1       2.839  -1.928  -1.307  0.00  0.00    +0.000 A 
ATOM      3  O   UNL     1       1.815  -1.508  -2.188  0.00  0.00    +0.000 OA
ATOM      4  C   UNL     1       1.385  -2.262  -3.261  0.00  0.00    +0.000 A 
ATOM      5  O   UNL     1       0.434  -1.932  -3.954  0.00  0.00    +0.000 OA
ATOM      6  C   UNL     1       2.142  -3.493  -3.530  0.00  0.00    +0.000 A 
ATOM      7  C   UNL     1       3.150  -3.898  -2.751  0.00  0.00    +0.000 A 
ATOM      8  C   UNL     1       3.533  -3.112  -1.584  0.00  0.00    +0.000 A 
ATOM      9  C   UNL     1       4.589  -3.515  -0.753  0.00  0.00    +0.000 A 
ATOM     10  C   UNL     1       4.942  -2.693   0.336  0.00  0.00    +0.000 A 
ATOM     11  C   UNL     1       4.216  -1.525   0.564  0.00  0.00    +0.000 A 
ATOM     12  O   UNL     1       4.724  -0.873   1.651  0.00  0.00    +0.000 OA
ATOM     13  C   UNL     1       5.759  -1.615   2.120  0.00  0.00    +0.000 A 
ATOM     14  C   UNL     1       5.933  -2.743   1.354  0.00  0.00    +0.000 A 
ENDROOT
BRANCH   1  16
ATOM     15  C   UNL     1       1.086   0.047   0.088  0.00  0.00    +0.000 C 
ATOM     16  O   UNL     1       2.513   0.090   0.063  0.00  0.00    +0.000 OA
ENDBRANCH   1  16
TORSDOF 1
