REMARK  Name = Methylergometrine
REMARK  7 active torsions:
REMARK  status: ('A' for Active; 'I' for Inactive)
REMARK    1  A    between atoms: C_15  and  C_19
REMARK    2  A    between atoms: N_17  and  C_18
REMARK    3  A    between atoms: N_21  and  CA_22
REMARK    4  A    between atoms: CA_22  and  C_23
REMARK    5  A    between atoms: CA_22  and  C_25
REMARK    6  A    between atoms: C_23  and  C_24
REMARK    7  A    between atoms: C_25  and  O_26
REMARK                            x       y       z     vdW  Elec       q    Type
REMARK                         _______ _______ _______ _____ _____    ______ ____
ROOT
ATOM      1  C   UNL     1       1.999  -0.049   0.001  0.00  0.00    +0.000 C 
ATOM      2  C   UNL     1       2.401   0.261   1.486  0.00  0.00    +0.000 C 
ATOM      3  C   UNL     1       2.082  -0.894   2.365  0.00  0.00    +0.000 A 
ATOM      4  C   UNL     1       1.805  -1.014   3.705  0.00  0.00    +0.000 A 
ATOM      5  N   UNL     1       1.624  -2.355   3.969  0.00  0.00    +0.000 N 
ATOM      6  C   UNL     1       1.771  -3.098   2.816  0.00  0.00    +0.000 A 
ATOM      7  C   UNL     1       1.699  -4.469   2.557  0.00  0.00    +0.000 A 
ATOM      8  C   UNL     1       1.893  -4.878   1.228  0.00  0.00    +0.000 A 
ATOM      9  C   UNL     1       2.136  -3.958   0.202  0.00  0.00    +0.000 A 
ATOM     10  C   UNL     1       2.214  -2.590   0.482  0.00  0.00    +0.000 A 
ATOM     11  C   UNL     1       2.034  -2.188   1.808  0.00  0.00    +0.000 A 
ATOM     12  C   UNL     1       2.428  -1.476  -0.460  0.00  0.00    +0.000 C 
ATOM     13  C   UNL     1       2.952  -1.709  -1.675  0.00  0.00    +0.000 C 
ATOM     14  C   UNL     1       3.001  -0.636  -2.724  0.00  0.00    +0.000 C 
ATOM     15  C   UNL     1       2.197   0.618  -2.310  0.00  0.00    +0.000 C 
ATOM     16  N   UNL     1       2.527   1.004  -0.922  0.00  0.00    +0.000 NA
ATOM     17  C   UNL     1       1.978   2.325  -0.617  0.00  0.00    +0.000 C 
ATOM     18  H   UNL     1       1.418  -2.743   4.878  0.00  0.00    +0.000 HD
ENDROOT
BRANCH  14  19
ATOM     19  C   UNL     1       2.366  -1.287  -3.944  0.00  0.00    +0.000 C 
ATOM     20  O   UNL     1       1.145  -1.310  -4.110  0.00  0.00    +0.000 OA
ATOM     21  N   UNL     1       3.255  -1.901  -4.809  0.00  0.00    +0.000 N 
ATOM     22  H   UNL     1       4.202  -2.064  -4.484  0.00  0.00    +0.000 HD
BRANCH  21  23
ATOM     23  CA  UNL     1       2.854  -2.425  -6.121  0.00  0.00    +0.000 C 
BRANCH  23  24
ATOM     24  C   UNL     1       2.547  -1.284  -7.120  0.00  0.00    +0.000 C 
ATOM     25  C   UNL     1       1.429  -0.351  -6.685  0.00  0.00    +0.000 C 
ENDBRANCH  23  24
BRANCH  23  26
ATOM     26  C   UNL     1       3.955  -3.331  -6.725  0.00  0.00    +0.000 C 
BRANCH  26  27
ATOM     27  O   UNL     1       3.584  -3.872  -7.991  0.00  0.00    +0.000 OA
ATOM     28  H   UNL     1       2.758  -4.372  -7.875  0.00  0.00    +0.000 HD
ENDBRANCH  26  27
ENDBRANCH  23  26
ENDBRANCH  21  23
ENDBRANCH  14  19
TORSDOF 5
