REMARK  Name = Methylparaben
REMARK  4 active torsions:
REMARK  status: ('A' for Active; 'I' for Inactive)
REMARK    1  A    between atoms: C_1  and  O_2
REMARK    2  A    between atoms: O_2  and  C_3
REMARK    3  A    between atoms: C_3  and  C_5
REMARK    4  A    between atoms: C_8  and  O_9
REMARK                            x       y       z     vdW  Elec       q    Type
REMARK                         _______ _______ _______ _____ _____    ______ ____
ROOT
ATOM      1  C   UNL     1       4.672  -0.740  -0.971  0.00  0.00    +0.000 A 
ATOM      2  C   UNL     1       5.394  -0.936   0.215  0.00  0.00    +0.000 A 
ATOM      3  C   UNL     1       6.800  -0.964   0.192  0.00  0.00    +0.000 A 
ATOM      4  C   UNL     1       7.475  -0.787  -1.014  0.00  0.00    +0.000 A 
ATOM      5  C   UNL     1       6.768  -0.581  -2.193  0.00  0.00    +0.000 A 
ATOM      6  C   UNL     1       5.370  -0.567  -2.175  0.00  0.00    +0.000 A 
ENDROOT
BRANCH   1   7
ATOM      7  C   UNL     1       3.186  -0.794  -1.017  0.00  0.00    +0.000 C 
ATOM      8  O   UNL     1       2.576  -1.357  -1.917  0.00  0.00    +0.000 OA
BRANCH   7  10
ATOM      9  C   UNL     1       1.187  -0.084  -0.017  0.00  0.00    +0.000 C 
ATOM     10  O   UNL     1       2.624  -0.109   0.012  0.00  0.00    +0.000 OA
ENDBRANCH   7  10
ENDBRANCH   1   7
BRANCH   4  11
ATOM     11  O   UNL     1       8.836  -0.814  -1.102  0.00  0.00    +0.000 OA
ATOM     12  H   UNL     1       9.221  -0.993  -0.230  0.00  0.00    +0.000 HD
ENDBRANCH   4  11
TORSDOF 3
