REMARK  Name = Methazolamide
REMARK  5 active torsions:
REMARK  status: ('A' for Active; 'I' for Inactive)
REMARK    1  A    between atoms: C_1  and  N_2
REMARK    2  A    between atoms: C_4  and  S_11
REMARK    3  A    between atoms: N_7  and  C_8
REMARK    4  A    between atoms: C_8  and  C_9
REMARK    5  A    between atoms: S_11  and  N_12
REMARK                            x       y       z     vdW  Elec       q    Type
REMARK                         _______ _______ _______ _____ _____    ______ ____
ROOT
ATOM      1  C   UNL     1       1.420   0.775  -0.076  0.00  0.00    +0.000 C 
ATOM      2  N   UNL     1       2.798   0.250  -0.082  0.00  0.00    +0.000 N 
ATOM      3  N   UNL     1       3.858   1.206  -0.081  0.00  0.00    +0.000 NA
ATOM      4  C   UNL     1       5.006   0.563  -0.052  0.00  0.00    +0.000 A 
ATOM      5  S   UNL     1       4.928  -1.184  -0.064  0.00  0.00    +0.000 S 
ATOM      6  C   UNL     1       3.163  -1.116  -0.067  0.00  0.00    +0.000 A 
ATOM      7  N   UNL     1       2.720  -2.320  -0.056  0.00  0.00    +0.000 NA
ENDROOT
BRANCH   7   8
ATOM      8  C   UNL     1       1.472  -2.888  -0.047  0.00  0.00    +0.000 C 
ATOM      9  C   UNL     1       0.282  -2.015  -0.044  0.00  0.00    +0.000 C 
ATOM     10  O   UNL     1       1.307  -4.106  -0.040  0.00  0.00    +0.000 OA
ENDBRANCH   7   8
BRANCH   4  11
ATOM     11  S   UNL     1       6.662   1.317  -0.041  0.00  0.00    +0.000 S 
ATOM     12  O   UNL     1       6.741   2.235   1.055  0.00  0.00    +0.000 OA
ATOM     13  O   UNL     1       7.611   0.211  -0.176  0.00  0.00    +0.000 OA
BRANCH  11  14
ATOM     14  N   UNL     1       6.873   2.197  -1.458  0.00  0.00    +0.000 NA
ATOM     15  H   UNL     1       6.356   3.071  -1.500  0.00  0.00    +0.000 HD
ATOM     16  H   UNL     1       6.955   1.632  -2.299  0.00  0.00    +0.000 HD
ENDBRANCH  11  14
ENDBRANCH   4  11
TORSDOF 3
