REMARK  Name = Methscopolamine bromide
REMARK  8 active torsions:
REMARK  status: ('A' for Active; 'I' for Inactive)
REMARK    1  A    between atoms: C_9  and  O_15
REMARK    2  A    between atoms: N_12  and  C_13
REMARK    3  A    between atoms: N_12  and  C_14
REMARK    4  A    between atoms: O_15  and  C_16
REMARK    5  A    between atoms: C_16  and  C_18
REMARK    6  A    between atoms: C_18  and  C_19
REMARK    7  A    between atoms: C_18  and  C_21
REMARK    8  A    between atoms: C_19  and  O_20
REMARK                            x       y       z     vdW  Elec       q    Type
REMARK                         _______ _______ _______ _____ _____    ______ ____
ROOT
ATOM      1 BR   UNL     1       0.816  -0.109  -0.177  0.00  0.00    +0.000 Br
ENDROOT
TORSDOF 0
REMARK  Name = Methscopolamine bromide
REMARK  8 active torsions:
REMARK  status: ('A' for Active; 'I' for Inactive)
REMARK    1  A    between atoms: C_9  and  O_15
REMARK    2  A    between atoms: N_12  and  C_13
REMARK    3  A    between atoms: N_12  and  C_14
REMARK    4  A    between atoms: O_15  and  C_16
REMARK    5  A    between atoms: C_16  and  C_18
REMARK    6  A    between atoms: C_18  and  C_19
REMARK    7  A    between atoms: C_18  and  C_21
REMARK    8  A    between atoms: C_19  and  O_20
REMARK                            x       y       z     vdW  Elec       q    Type
REMARK                         _______ _______ _______ _____ _____    ______ ____
ROOT
ATOM      1  O   UNL     2       3.725   1.686  -6.131  0.00  0.00    +0.000 OA
ENDROOT
BRANCH   1   7
ATOM      2  C   UNL     2       1.404  -0.416  -7.076  0.00  0.00    +0.000 C 
ATOM      3  O   UNL     2       2.266  -0.231  -5.975  0.00  0.00    +0.000 OA
ATOM      4  C   UNL     2       0.909   0.074  -5.694  0.00  0.00    +0.000 C 
ATOM      5  C   UNL     2       0.374   1.478  -5.938  0.00  0.00    +0.000 C 
ATOM      6  C   UNL     2       1.442   2.553  -5.775  0.00  0.00    +0.000 C 
ATOM      7  C   UNL     2       2.651   2.426  -6.736  0.00  0.00    +0.000 C 
ATOM      8  C   UNL     2       2.339   1.722  -8.078  0.00  0.00    +0.000 C 
ATOM      9  C   UNL     2       1.151   0.743  -8.024  0.00  0.00    +0.000 C 
ATOM     10  N   UNL     2      -0.081   1.442  -7.413  0.00  0.00    +0.000 N 
ATOM     11  C   UNL     2      -1.304   0.503  -7.499  0.00  0.00    +0.000 C 
ATOM     12  C   UNL     2      -0.468   2.765  -8.012  0.00  0.00    +0.000 C 
ENDBRANCH   1   7
BRANCH   1  13
ATOM     13  C   UNL     2       4.131   2.123  -4.901  0.00  0.00    +0.000 C 
ATOM     14  O   UNL     2       3.853   3.214  -4.452  0.00  0.00    +0.000 OA
BRANCH  13  15
ATOM     15  C   UNL     2       4.945   1.040  -4.224  0.00  0.00    +0.000 C 
BRANCH  15  16
ATOM     16  C   UNL     2       6.298   0.883  -4.851  0.00  0.00    +0.000 A 
ATOM     17  C   UNL     2       6.808  -0.399  -5.099  0.00  0.00    +0.000 A 
ATOM     18  C   UNL     2       8.109  -0.540  -5.563  0.00  0.00    +0.000 A 
ATOM     19  C   UNL     2       8.865   0.595  -5.858  0.00  0.00    +0.000 A 
ATOM     20  C   UNL     2       8.348   1.871  -5.637  0.00  0.00    +0.000 A 
ATOM     21  C   UNL     2       7.073   2.016  -5.118  0.00  0.00    +0.000 A 
ENDBRANCH  15  16
BRANCH  15  22
ATOM     22  C   UNL     2       5.055   1.356  -2.738  0.00  0.00    +0.000 C 
BRANCH  22  23
ATOM     23  O   UNL     2       3.912   0.816  -2.103  0.00  0.00    +0.000 OA
ATOM     24  H   UNL     2       3.822  -0.129  -2.320  0.00  0.00    +0.000 HD
ENDBRANCH  22  23
ENDBRANCH  15  22
ENDBRANCH  13  15
ENDBRANCH   1  13
TORSDOF 6
