REMARK  Name = Methylnaltrexone
REMARK  5 active torsions:
REMARK  status: ('A' for Active; 'I' for Inactive)
REMARK    1  A    between atoms: C_1  and  N_2
REMARK    2  A    between atoms: N_2  and  C_3
REMARK    3  A    between atoms: C_3  and  C_4
REMARK    4  A    between atoms: C_13  and  O_14
REMARK    5  A    between atoms: C_20  and  O_21
REMARK                            x       y       z     vdW  Elec       q    Type
REMARK                         _______ _______ _______ _____ _____    ______ ____
ROOT
ATOM      1  C   UNL     1       0.964  -0.410   0.699  0.00  0.00    +0.000 C 
ATOM      2  N   UNL     1       2.480  -0.699   1.131  0.00  0.00    +0.000 N 
ATOM      3  C   UNL     1       3.080  -1.217  -0.043  0.00  0.00    +0.000 C 
ATOM      4  C   UNL     1       4.542  -1.206   0.456  0.00  0.00    +0.000 C 
ATOM      5  C   UNL     1       4.964  -2.037   1.755  0.00  0.00    +0.000 C 
ATOM      6  C   UNL     1       6.371  -1.669   2.253  0.00  0.00    +0.000 C 
ATOM      7  O   UNL     1       7.277  -1.995   1.146  0.00  0.00    +0.000 OA
ATOM      8  C   UNL     1       6.693  -3.116   0.567  0.00  0.00    +0.000 A 
ATOM      9  C   UNL     1       7.123  -3.906  -0.482  0.00  0.00    +0.000 A 
ATOM     10  C   UNL     1       6.266  -4.913  -0.971  0.00  0.00    +0.000 A 
ATOM     11  C   UNL     1       4.944  -5.057  -0.482  0.00  0.00    +0.000 A 
ATOM     12  C   UNL     1       4.466  -4.137   0.449  0.00  0.00    +0.000 A 
ATOM     13  C   UNL     1       3.038  -3.889   0.910  0.00  0.00    +0.000 C 
ATOM     14  C   UNL     1       2.877  -2.412   1.900  0.00  0.00    +0.000 C 
ATOM     15  C   UNL     1       3.780  -2.063   3.025  0.00  0.00    +0.000 C 
ATOM     16  C   UNL     1       3.950  -0.926   3.960  0.00  0.00    +0.000 C 
ATOM     17  C   UNL     1       4.933   0.131   3.560  0.00  0.00    +0.000 C 
ATOM     18  C   UNL     1       6.228  -0.210   2.779  0.00  0.00    +0.000 C 
ATOM     19  O   UNL     1       6.975   0.664   2.481  0.00  0.00    +0.000 OA
ATOM     20  C   UNL     1       5.387  -3.268   1.010  0.00  0.00    +0.000 A 
ENDROOT
BRANCH   9  21
ATOM     21  O   UNL     1       8.320  -3.730  -1.101  0.00  0.00    +0.000 OA
ATOM     22  H   UNL     1       8.770  -2.978  -0.677  0.00  0.00    +0.000 HD
ENDBRANCH   9  21
BRANCH  15  23
ATOM     23  O   UNL     1       2.413  -2.560   3.664  0.00  0.00    +0.000 OA
ATOM     24  H   UNL     1       1.770  -3.102   3.120  0.00  0.00    +0.000 HD
ENDBRANCH  15  23
BRANCH   2  25
ATOM     25  C   UNL     1       3.009   1.096   1.009  0.00  0.00    +0.000 C 
BRANCH  25  26
ATOM     26  C   UNL     1       2.459   2.187  -0.135  0.00  0.00    +0.000 C 
ATOM     27  C   UNL     1       2.342   3.665   0.306  0.00  0.00    +0.000 C 
ATOM     28  C   UNL     1       3.319   3.324  -0.767  0.00  0.00    +0.000 C 
ENDBRANCH  25  26
ENDBRANCH   2  25
TORSDOF 4
