REMARK  Name = Methionine
REMARK  7 active torsions:
REMARK  status: ('A' for Active; 'I' for Inactive)
REMARK    1  A    between atoms: CE_1  and  SD_2
REMARK    2  A    between atoms: SD_2  and  CG_3
REMARK    3  A    between atoms: CG_3  and  CB_4
REMARK    4  A    between atoms: CB_4  and  CA_5
REMARK    5  A    between atoms: CA_5  and  N_6
REMARK    6  A    between atoms: CA_5  and  C_7
REMARK    7  A    between atoms: C_7  and  O_8
REMARK                            x       y       z     vdW  Elec       q    Type
REMARK                         _______ _______ _______ _____ _____    ______ ____
ROOT
ATOM      1  CA  MET A   1       5.522  -0.831   2.897  0.00  0.00    +0.000 C 
ENDROOT
BRANCH   1   2
ATOM      2  N   MET A   1       5.039  -0.304   1.606  0.00  0.00    +0.000 NA
ATOM      3  H1  MET A   1       5.296  -0.892   0.820  0.00  0.00    +0.000 HD
ATOM      4  H2  MET A   1       5.303   0.666   1.458  0.00  0.00    +0.000 HD
ENDBRANCH   1   2
BRANCH   1   5
ATOM      5  C   MET A   1       7.055  -0.839   2.995  0.00  0.00    +0.000 C 
ATOM      6  OXT MET A   1       7.670  -1.136   4.014  0.00  0.00    +0.000 OA
BRANCH   5   7
ATOM      7  O   MET A   1       7.701  -0.484   1.860  0.00  0.00    +0.000 OA
ATOM      8  H   MET A   1       7.090  -0.239   1.143  0.00  0.00    +0.000 HD
ENDBRANCH   5   7
ENDBRANCH   1   5
BRANCH   1   9
ATOM      9  CB  MET A   1       4.930  -2.213   3.249  0.00  0.00    +0.000 C 
BRANCH   9  10
ATOM     10  CG  MET A   1       4.707  -3.170   2.065  0.00  0.00    +0.000 C 
BRANCH  10  12
ATOM     11  CE  MET A   1       3.168  -5.185   0.880  0.00  0.00    +0.000 C 
ATOM     12  SD  MET A   1       3.340  -4.317   2.461  0.00  0.00    +0.000 S 
ENDBRANCH  10  12
ENDBRANCH   9  10
ENDBRANCH   1   9
TORSDOF 6
