REMARK  Name = Methyl salicylate
REMARK  4 active torsions:
REMARK  status: ('A' for Active; 'I' for Inactive)
REMARK    1  A    between atoms: C_1  and  O_2
REMARK    2  A    between atoms: O_2  and  C_3
REMARK    3  A    between atoms: C_3  and  C_5
REMARK    4  A    between atoms: C_10  and  O_11
REMARK                            x       y       z     vdW  Elec       q    Type
REMARK                         _______ _______ _______ _____ _____    ______ ____
ROOT
ATOM      1  C   UNL     1       4.649   0.757   0.889  0.00  0.00    +0.000 A 
ATOM      2  C   UNL     1       5.361   0.739   2.100  0.00  0.00    +0.000 A 
ATOM      3  C   UNL     1       6.759   0.763   2.104  0.00  0.00    +0.000 A 
ATOM      4  C   UNL     1       7.456   0.825   0.898  0.00  0.00    +0.000 A 
ATOM      5  C   UNL     1       6.757   0.855  -0.313  0.00  0.00    +0.000 A 
ATOM      6  C   UNL     1       5.357   0.818  -0.316  0.00  0.00    +0.000 A 
ENDROOT
BRANCH   1   7
ATOM      7  C   UNL     1       3.167   0.808   0.947  0.00  0.00    +0.000 C 
ATOM      8  O   UNL     1       2.566   1.498   1.762  0.00  0.00    +0.000 OA
BRANCH   7  10
ATOM      9  C   UNL     1       1.167  -0.027   0.050  0.00  0.00    +0.000 C 
ATOM     10  O   UNL     1       2.598  -0.045   0.058  0.00  0.00    +0.000 OA
ENDBRANCH   7  10
ENDBRANCH   1   7
BRANCH   6  11
ATOM     11  O   UNL     1       4.681   0.889  -1.502  0.00  0.00    +0.000 OA
ATOM     12  H   UNL     1       5.306   0.866  -2.243  0.00  0.00    +0.000 HD
ENDBRANCH   6  11
TORSDOF 3
