REMARK  Name = Methdilazine
REMARK  3 active torsions:
REMARK  status: ('A' for Active; 'I' for Inactive)
REMARK    1  A    between atoms: C_1  and  N_2
REMARK    2  A    between atoms: C_5  and  C_6
REMARK    3  A    between atoms: C_6  and  N_7
REMARK                            x       y       z     vdW  Elec       q    Type
REMARK                         _______ _______ _______ _____ _____    ______ ____
ROOT
ATOM      1  N   UNL     1       1.707  -2.730  -1.597  0.00  0.00    +0.000 N 
ATOM      2  C   UNL     1       0.443  -3.360  -1.447  0.00  0.00    +0.000 A 
ATOM      3  C   UNL     1      -0.747  -2.649  -1.439  0.00  0.00    +0.000 A 
ATOM      4  C   UNL     1      -1.911  -3.191  -0.909  0.00  0.00    +0.000 A 
ATOM      5  C   UNL     1      -2.007  -4.556  -0.706  0.00  0.00    +0.000 A 
ATOM      6  C   UNL     1      -0.916  -5.346  -1.029  0.00  0.00    +0.000 A 
ATOM      7  C   UNL     1       0.317  -4.762  -1.355  0.00  0.00    +0.000 A 
ATOM      8  S   UNL     1       1.708  -5.804  -1.746  0.00  0.00    +0.000 S 
ATOM      9  C   UNL     1       2.570  -4.670  -2.842  0.00  0.00    +0.000 A 
ATOM     10  C   UNL     1       3.211  -5.206  -3.964  0.00  0.00    +0.000 A 
ATOM     11  C   UNL     1       3.891  -4.372  -4.848  0.00  0.00    +0.000 A 
ATOM     12  C   UNL     1       3.942  -3.003  -4.608  0.00  0.00    +0.000 A 
ATOM     13  C   UNL     1       3.282  -2.460  -3.506  0.00  0.00    +0.000 A 
ATOM     14  C   UNL     1       2.558  -3.268  -2.612  0.00  0.00    +0.000 A 
ENDROOT
BRANCH   1  15
ATOM     15  C   UNL     1       1.800  -1.258  -1.341  0.00  0.00    +0.000 C 
BRANCH  15  20
ATOM     16  C   UNL     1      -2.073   0.170   0.231  0.00  0.00    +0.000 C 
ATOM     17  N   UNL     1      -0.655   0.078  -0.053  0.00  0.00    +0.000 NA
ATOM     18  C   UNL     1       0.080   1.297   0.241  0.00  0.00    +0.000 C 
ATOM     19  C   UNL     1       1.532   0.840   0.051  0.00  0.00    +0.000 C 
ATOM     20  C   UNL     1       1.495  -0.717   0.096  0.00  0.00    +0.000 C 
ATOM     21  C   UNL     1       0.105  -0.931   0.694  0.00  0.00    +0.000 C 
ENDBRANCH  15  20
ENDBRANCH   1  15
TORSDOF 2
