REMARK  Name = Methylchloroisothiazolinone
REMARK  1 active torsions:
REMARK  status: ('A' for Active; 'I' for Inactive)
REMARK    1  A    between atoms: C_1  and  N_2
REMARK                            x       y       z     vdW  Elec       q    Type
REMARK                         _______ _______ _______ _____ _____    ______ ____
ROOT
ATOM      1  C   UNL     1       0.978  -0.011   0.053  0.00  0.00    +0.000 C 
ATOM      2  N   UNL     1       2.415   0.064   0.052  0.00  0.00    +0.000 N 
ATOM      3  S   UNL     1       3.204   1.563   0.055  0.00  0.00    +0.000 S 
ATOM      4  C   UNL     1       4.728   0.761   0.060  0.00  0.00    +0.000 A 
ATOM      5 CL   UNL     1       6.180   1.658   0.070  0.00  0.00    +0.000 Cl
ATOM      6  C   UNL     1       4.669  -0.572   0.056  0.00  0.00    +0.000 A 
ATOM      7  C   UNL     1       3.261  -1.027   0.054  0.00  0.00    +0.000 A 
ATOM      8  O   UNL     1       2.954  -2.211   0.055  0.00  0.00    +0.000 OA
ENDROOT
TORSDOF 0
