REMARK  Name = Methadone
REMARK  11 active torsions:
REMARK  status: ('A' for Active; 'I' for Inactive)
REMARK    1  A    between atoms: C_1  and  C_2
REMARK    2  A    between atoms: C_2  and  C_3
REMARK    3  A    between atoms: C_3  and  C_5
REMARK    4  A    between atoms: C_5  and  C_6
REMARK    5  A    between atoms: C_5  and  C_12
REMARK    6  A    between atoms: C_5  and  C_18
REMARK    7  A    between atoms: C_6  and  C_7
REMARK    8  A    between atoms: C_7  and  C_8
REMARK    9  A    between atoms: C_7  and  N_9
REMARK   10  A    between atoms: N_9  and  C_10
REMARK   11  A    between atoms: N_9  and  C_11
REMARK                            x       y       z     vdW  Elec       q    Type
REMARK                         _______ _______ _______ _____ _____    ______ ____
ROOT
ATOM      1  C   UNL     1       4.573  -0.900   1.489  0.00  0.00    +0.000 C 
ENDROOT
BRANCH   1   2
ATOM      2  C   UNL     1       5.310   0.469   1.679  0.00  0.00    +0.000 A 
ATOM      3  C   UNL     1       6.487   0.591   2.428  0.00  0.00    +0.000 A 
ATOM      4  C   UNL     1       6.951   1.856   2.819  0.00  0.00    +0.000 A 
ATOM      5  C   UNL     1       6.315   3.023   2.396  0.00  0.00    +0.000 A 
ATOM      6  C   UNL     1       5.218   2.929   1.576  0.00  0.00    +0.000 A 
ATOM      7  C   UNL     1       4.769   1.672   1.212  0.00  0.00    +0.000 A 
ENDBRANCH   1   2
BRANCH   1   8
ATOM      8  C   UNL     1       4.805  -1.804   2.772  0.00  0.00    +0.000 A 
ATOM      9  C   UNL     1       5.242  -3.140   2.757  0.00  0.00    +0.000 A 
ATOM     10  C   UNL     1       5.033  -3.995   3.836  0.00  0.00    +0.000 A 
ATOM     11  C   UNL     1       4.680  -3.459   5.060  0.00  0.00    +0.000 A 
ATOM     12  C   UNL     1       4.478  -2.088   5.172  0.00  0.00    +0.000 A 
ATOM     13  C   UNL     1       4.493  -1.279   4.035  0.00  0.00    +0.000 A 
ENDBRANCH   1   8
BRANCH   1  14
ATOM     14  C   UNL     1       2.999  -0.630   1.345  0.00  0.00    +0.000 C 
ATOM     15  O   UNL     1       2.205  -0.974   2.244  0.00  0.00    +0.000 OA
BRANCH  14  17
ATOM     16  C   UNL     1       0.891  -0.054   0.039  0.00  0.00    +0.000 C 
ATOM     17  C   UNL     1       2.404   0.010   0.064  0.00  0.00    +0.000 C 
ENDBRANCH  14  17
ENDBRANCH   1  14
BRANCH   1  18
ATOM     18  C   UNL     1       5.108  -1.612   0.209  0.00  0.00    +0.000 C 
BRANCH  18  19
ATOM     19  C   UNL     1       4.475  -3.003  -0.182  0.00  0.00    +0.000 C 
ATOM     20  C   UNL     1       2.962  -2.964  -0.410  0.00  0.00    +0.000 C 
BRANCH  19  21
ATOM     21  N   UNL     1       5.196  -3.660  -1.304  0.00  0.00    +0.000 NA
ATOM     22  C   UNL     1       6.637  -3.814  -1.027  0.00  0.00    +0.000 C 
ATOM     23  C   UNL     1       4.649  -5.014  -1.507  0.00  0.00    +0.000 C 
ENDBRANCH  19  21
ENDBRANCH  18  19
ENDBRANCH   1  18
TORSDOF 7
