REMARK  Name = Methysergide
REMARK  8 active torsions:
REMARK  status: ('A' for Active; 'I' for Inactive)
REMARK    1  A    between atoms: N_6  and  C_7
REMARK    2  A    between atoms: C_16  and  C_20
REMARK    3  A    between atoms: N_18  and  C_19
REMARK    4  A    between atoms: N_22  and  CA_23
REMARK    5  A    between atoms: CA_23  and  C_24
REMARK    6  A    between atoms: CA_23  and  C_26
REMARK    7  A    between atoms: C_24  and  C_25
REMARK    8  A    between atoms: C_26  and  O_27
REMARK                            x       y       z     vdW  Elec       q    Type
REMARK                         _______ _______ _______ _____ _____    ______ ____
ROOT
ATOM      1  C   UNL     1       2.379  -0.592   0.038  0.00  0.00    +0.000 C 
ATOM      2  C   UNL     1       2.732  -1.791  -0.814  0.00  0.00    +0.000 C 
ATOM      3  C   UNL     1       4.062  -1.444  -1.203  0.00  0.00    +0.000 A 
ATOM      4  C   UNL     1       5.156  -2.241  -1.248  0.00  0.00    +0.000 A 
ATOM      5  N   UNL     1       6.225  -1.409  -1.371  0.00  0.00    +0.000 N 
ATOM      6  C   UNL     1       7.558  -1.977  -1.425  0.00  0.00    +0.000 C 
ATOM      7  C   UNL     1       5.799  -0.071  -1.360  0.00  0.00    +0.000 A 
ATOM      8  C   UNL     1       4.386  -0.057  -1.255  0.00  0.00    +0.000 A 
ATOM      9  C   UNL     1       3.486   1.120  -0.908  0.00  0.00    +0.000 A 
ATOM     10  C   UNL     1       4.288   2.303  -0.968  0.00  0.00    +0.000 A 
ATOM     11  C   UNL     1       5.734   2.284  -1.201  0.00  0.00    +0.000 A 
ATOM     12  C   UNL     1       6.517   1.116  -1.343  0.00  0.00    +0.000 A 
ATOM     13  C   UNL     1       1.926   0.801  -0.001  0.00  0.00    +0.000 C 
ATOM     14  C   UNL     1       0.630   0.228   0.568  0.00  0.00    +0.000 C 
ATOM     15  C   UNL     1       0.741  -0.903   1.998  0.00  0.00    +0.000 C 
ATOM     16  C   UNL     1       2.255  -1.212   2.228  0.00  0.00    +0.000 C 
ATOM     17  N   UNL     1       2.921  -0.300   1.380  0.00  0.00    +0.000 NA
ATOM     18  C   UNL     1       4.326  -0.130   1.635  0.00  0.00    +0.000 C 
ENDROOT
BRANCH  15  19
ATOM     19  C   UNL     1       0.162  -2.417   2.439  0.00  0.00    +0.000 C 
ATOM     20  O   UNL     1       0.898  -3.382   2.524  0.00  0.00    +0.000 OA
ATOM     21  N   UNL     1      -1.135  -2.549   2.938  0.00  0.00    +0.000 N 
ATOM     22  H   UNL     1      -1.811  -1.843   2.709  0.00  0.00    +0.000 HD
BRANCH  21  23
ATOM     23  CA  UNL     1      -1.604  -3.757   3.731  0.00  0.00    +0.000 C 
BRANCH  23  24
ATOM     24  C   UNL     1      -1.083  -3.795   5.200  0.00  0.00    +0.000 C 
ATOM     25  C   UNL     1       0.426  -3.849   5.324  0.00  0.00    +0.000 C 
ENDBRANCH  23  24
BRANCH  23  26
ATOM     26  C   UNL     1      -3.157  -3.831   3.796  0.00  0.00    +0.000 C 
BRANCH  26  27
ATOM     27  O   UNL     1      -3.641  -4.973   4.505  0.00  0.00    +0.000 OA
ATOM     28  H   UNL     1      -3.311  -5.776   4.066  0.00  0.00    +0.000 HD
ENDBRANCH  26  27
ENDBRANCH  23  26
ENDBRANCH  21  23
ENDBRANCH  15  19
TORSDOF 5
