REMARK  Name = Methoxyflurane
REMARK  3 active torsions:
REMARK  status: ('A' for Active; 'I' for Inactive)
REMARK    1  A    between atoms: C_1  and  O_2
REMARK    2  A    between atoms: O_2  and  C_3
REMARK    3  A    between atoms: C_3  and  C_6
REMARK                            x       y       z     vdW  Elec       q    Type
REMARK                         _______ _______ _______ _____ _____    ______ ____
ROOT
ATOM      1  C   UNL     1       2.856   0.490   1.214  0.00  0.00    +0.000 C 
ATOM      2  F   UNL     1       2.338   1.713   1.486  0.00  0.00    +0.000 F 
ATOM      3  F   UNL     1       2.390  -0.363   2.165  0.00  0.00    +0.000 F 
ENDROOT
BRANCH   1   4
ATOM      4  C   UNL     1       4.391   0.507   1.226  0.00  0.00    +0.000 C 
ATOM      5 CL   UNL     1       5.067   1.618  -0.008  0.00  0.00    +0.000 Cl
ATOM      6 CL   UNL     1       5.040   0.973   2.829  0.00  0.00    +0.000 Cl
ENDBRANCH   1   4
BRANCH   1   8
ATOM      7  C   UNL     1       0.920   0.063  -0.051  0.00  0.00    +0.000 C 
ATOM      8  O   UNL     1       2.339   0.045  -0.040  0.00  0.00    +0.000 OA
ENDBRANCH   1   8
TORSDOF 2
