REMARK  Name = Methylprednisolone
REMARK  8 active torsions:
REMARK  status: ('A' for Active; 'I' for Inactive)
REMARK    1  A    between atoms: C_5  and  O_6
REMARK    2  A    between atoms: C_5  and  C_7
REMARK    3  A    between atoms: C_7  and  C_9
REMARK    4  A    between atoms: C_9  and  O_10
REMARK    5  A    between atoms: C_11  and  C_12
REMARK    6  A    between atoms: C_14  and  O_15
REMARK    7  A    between atoms: C_21  and  C_22
REMARK    8  A    between atoms: C_29  and  C_30
REMARK                            x       y       z     vdW  Elec       q    Type
REMARK                         _______ _______ _______ _____ _____    ______ ____
ROOT
ATOM      1  C   UNL     1       1.807  -0.072  -0.079  0.00  0.00    +0.000 C 
ATOM      2  C   UNL     1       2.205  -0.085  -1.440  0.00  0.00    +0.000 C 
ATOM      3  C   UNL     1       3.254  -0.451  -0.429  0.00  0.00    +0.000 C 
ATOM      4  C   UNL     1       2.604  -1.012   1.456  0.00  0.00    +0.000 C 
ATOM      5  C   UNL     1       2.736  -1.694   0.300  0.00  0.00    +0.000 C 
ATOM      6  C   UNL     1       2.008  -2.894  -0.180  0.00  0.00    +0.000 C 
ATOM      7  C   UNL     1       4.548  -1.580   0.804  0.00  0.00    +0.000 C 
ATOM      8  C   UNL     1       4.870  -0.084   1.593  0.00  0.00    +0.000 C 
ATOM      9  C   UNL     1       4.267   1.339   0.997  0.00  0.00    +0.000 C 
ATOM     10  C   UNL     1       2.563   1.328   0.817  0.00  0.00    +0.000 C 
ATOM     11  C   UNL     1       2.104   2.566   0.093  0.00  0.00    +0.000 C 
ATOM     12  C   UNL     1       2.647   3.829   0.730  0.00  0.00    +0.000 C 
ATOM     13  C   UNL     1       2.166   4.979  -0.129  0.00  0.00    +0.000 C 
ATOM     14  C   UNL     1       4.144   3.883   0.959  0.00  0.00    +0.000 C 
ATOM     15  C   UNL     1       4.924   4.954   0.700  0.00  0.00    +0.000 C 
ATOM     16  C   UNL     1       6.319   4.812   1.177  0.00  0.00    +0.000 C 
ATOM     17  O   UNL     1       6.836   5.352   2.143  0.00  0.00    +0.000 OA
ATOM     18  C   UNL     1       7.049   3.758   0.393  0.00  0.00    +0.000 C 
ATOM     19  C   UNL     1       6.404   2.796   1.110  0.00  0.00    +0.000 C 
ATOM     20  C   UNL     1       4.835   2.668   1.586  0.00  0.00    +0.000 C 
ATOM     21  C   UNL     1       4.390   2.654   3.056  0.00  0.00    +0.000 C 
ENDROOT
BRANCH   4  22
ATOM     22  O   UNL     1       1.138  -0.981   1.782  0.00  0.00    +0.000 OA
ATOM     23  H   UNL     1       0.940  -1.096   2.721  0.00  0.00    +0.000 HD
ENDBRANCH   4  22
BRANCH   4  24
ATOM     24  C   UNL     1       2.846  -2.465   2.575  0.00  0.00    +0.000 C 
ATOM     25  O   UNL     1       3.350  -3.540   2.202  0.00  0.00    +0.000 OA
BRANCH  24  26
ATOM     26  C   UNL     1       2.310  -2.569   4.089  0.00  0.00    +0.000 C 
BRANCH  26  27
ATOM     27  O   UNL     1       2.756  -3.794   4.740  0.00  0.00    +0.000 OA
ATOM     28  H   UNL     1       2.555  -4.547   4.148  0.00  0.00    +0.000 HD
ENDBRANCH  26  27
ENDBRANCH  24  26
ENDBRANCH   4  24
BRANCH   8  29
ATOM     29  O   UNL     1       4.431  -0.263   2.957  0.00  0.00    +0.000 OA
ATOM     30  H   UNL     1       3.561   0.154   3.098  0.00  0.00    +0.000 HD
ENDBRANCH   8  29
TORSDOF 5
