REMARK  Name = Methylprednisolone hemisuccinate
REMARK  13 active torsions:
REMARK  status: ('A' for Active; 'I' for Inactive)
REMARK    1  A    between atoms: C_5  and  O_6
REMARK    2  A    between atoms: C_5  and  C_7
REMARK    3  A    between atoms: C_7  and  C_9
REMARK    4  A    between atoms: C_9  and  O_10
REMARK    5  A    between atoms: O_10  and  C_11
REMARK    6  A    between atoms: C_11  and  C_13
REMARK    7  A    between atoms: C_13  and  C_14
REMARK    8  A    between atoms: C_14  and  C_15
REMARK    9  A    between atoms: C_15  and  O_16
REMARK   10  A    between atoms: C_18  and  C_19
REMARK   11  A    between atoms: C_21  and  O_22
REMARK   12  A    between atoms: C_28  and  C_29
REMARK   13  A    between atoms: C_36  and  C_37
REMARK                            x       y       z     vdW  Elec       q    Type
REMARK                         _______ _______ _______ _____ _____    ______ ____
ROOT
ATOM      1  C   UNL     1       1.701  -0.013  -0.084  0.00  0.00    +0.000 C 
ATOM      2  C   UNL     1       2.099  -0.028  -1.445  0.00  0.00    +0.000 C 
ATOM      3  C   UNL     1       3.145  -0.396  -0.427  0.00  0.00    +0.000 C 
ATOM      4  C   UNL     1       2.498  -0.962   1.462  0.00  0.00    +0.000 C 
ATOM      5  C   UNL     1       2.630  -1.636   0.299  0.00  0.00    +0.000 C 
ATOM      6  C   UNL     1       1.905  -2.834  -0.186  0.00  0.00    +0.000 C 
ATOM      7  C   UNL     1       4.443  -1.520   0.796  0.00  0.00    +0.000 C 
ATOM      8  C   UNL     1       4.764  -0.026   1.584  0.00  0.00    +0.000 C 
ATOM      9  C   UNL     1       4.161   1.399   0.986  0.00  0.00    +0.000 C 
ATOM     10  C   UNL     1       2.457   1.387   0.807  0.00  0.00    +0.000 C 
ATOM     11  C   UNL     1       1.998   2.625   0.082  0.00  0.00    +0.000 C 
ATOM     12  C   UNL     1       2.542   3.888   0.718  0.00  0.00    +0.000 C 
ATOM     13  C   UNL     1       2.061   5.038  -0.141  0.00  0.00    +0.000 C 
ATOM     14  C   UNL     1       4.039   3.943   0.947  0.00  0.00    +0.000 C 
ATOM     15  C   UNL     1       4.819   5.014   0.688  0.00  0.00    +0.000 C 
ATOM     16  C   UNL     1       6.215   4.872   1.164  0.00  0.00    +0.000 C 
ATOM     17  O   UNL     1       6.733   5.408   2.132  0.00  0.00    +0.000 OA
ATOM     18  C   UNL     1       6.944   3.820   0.379  0.00  0.00    +0.000 C 
ATOM     19  C   UNL     1       6.299   2.857   1.094  0.00  0.00    +0.000 C 
ATOM     20  C   UNL     1       4.730   2.728   1.573  0.00  0.00    +0.000 C 
ATOM     21  C   UNL     1       4.284   2.713   3.043  0.00  0.00    +0.000 C 
ENDROOT
BRANCH   4  22
ATOM     22  O   UNL     1       1.035  -0.925   1.782  0.00  0.00    +0.000 OA
ATOM     23  H   UNL     1       0.834  -1.049   2.718  0.00  0.00    +0.000 HD
ENDBRANCH   4  22
BRANCH   4  24
ATOM     24  C   UNL     1       2.754  -2.427   2.599  0.00  0.00    +0.000 C 
ATOM     25  O   UNL     1       3.278  -3.484   2.203  0.00  0.00    +0.000 OA
BRANCH  24  26
ATOM     26  C   UNL     1       2.232  -2.575   4.164  0.00  0.00    +0.000 C 
BRANCH  26  27
ATOM     27  O   UNL     1       2.754  -3.894   4.767  0.00  0.00    +0.000 OA
BRANCH  27  28
ATOM     28  C   UNL     1       2.475  -4.278   6.061  0.00  0.00    +0.000 C 
ATOM     29  O   UNL     1       1.780  -3.617   6.822  0.00  0.00    +0.000 OA
BRANCH  28  30
ATOM     30  C   UNL     1       3.124  -5.627   6.483  0.00  0.00    +0.000 C 
BRANCH  30  31
ATOM     31  C   UNL     1       2.829  -6.012   7.951  0.00  0.00    +0.000 C 
BRANCH  31  32
ATOM     32  C   UNL     1       3.423  -7.309   8.485  0.00  0.00    +0.000 C 
ATOM     33  O   UNL     1       3.236  -7.683   9.637  0.00  0.00    +0.000 OA
BRANCH  32  34
ATOM     34  O   UNL     1       4.171  -8.046   7.644  0.00  0.00    +0.000 OA
ATOM     35  H   UNL     1       4.303  -7.725   6.737  0.00  0.00    +0.000 HD
ENDBRANCH  32  34
ENDBRANCH  31  32
ENDBRANCH  30  31
ENDBRANCH  28  30
ENDBRANCH  27  28
ENDBRANCH  26  27
ENDBRANCH  24  26
ENDBRANCH   4  24
BRANCH   8  36
ATOM     36  O   UNL     1       4.322  -0.207   2.948  0.00  0.00    +0.000 OA
ATOM     37  H   UNL     1       3.456   0.219   3.084  0.00  0.00    +0.000 HD
ENDBRANCH   8  36
TORSDOF 10
