REMARK  Name = Methoxyphenamine
REMARK  7 active torsions:
REMARK  status: ('A' for Active; 'I' for Inactive)
REMARK    1  A    between atoms: C_1  and  N_2
REMARK    2  A    between atoms: N_2  and  C_3
REMARK    3  A    between atoms: C_3  and  C_4
REMARK    4  A    between atoms: C_3  and  C_5
REMARK    5  A    between atoms: C_5  and  C_6
REMARK    6  A    between atoms: C_11  and  O_12
REMARK    7  A    between atoms: O_12  and  C_13
REMARK                            x       y       z     vdW  Elec       q    Type
REMARK                         _______ _______ _______ _____ _____    ______ ____
ROOT
ATOM      1  C   UNL     1       5.028  -1.642   2.072  0.00  0.00    +0.000 A 
ATOM      2  C   UNL     1       5.033  -3.059   2.033  0.00  0.00    +0.000 A 
ATOM      3  C   UNL     1       5.130  -3.823   3.193  0.00  0.00    +0.000 A 
ATOM      4  C   UNL     1       5.364  -3.194   4.400  0.00  0.00    +0.000 A 
ATOM      5  C   UNL     1       5.492  -1.803   4.441  0.00  0.00    +0.000 A 
ATOM      6  C   UNL     1       5.314  -1.008   3.289  0.00  0.00    +0.000 A 
ENDROOT
BRANCH   6   7
ATOM      7  O   UNL     1       5.408   0.328   3.578  0.00  0.00    +0.000 OA
ATOM      8  C   UNL     1       5.406   1.267   2.519  0.00  0.00    +0.000 C 
ENDBRANCH   6   7
BRANCH   1   9
ATOM      9  C   UNL     1       4.456  -0.985   0.825  0.00  0.00    +0.000 C 
BRANCH   9  10
ATOM     10  C   UNL     1       2.905  -0.888   0.926  0.00  0.00    +0.000 C 
ATOM     11  C   UNL     1       2.296  -2.294   0.811  0.00  0.00    +0.000 C 
BRANCH  10  13
ATOM     12  C   UNL     1       0.949   0.120  -0.136  0.00  0.00    +0.000 C 
ATOM     13  N   UNL     1       2.404   0.008  -0.135  0.00  0.00    +0.000 NA
ATOM     14  H   UNL     1       2.794   0.940   0.013  0.00  0.00    +0.000 HD
ENDBRANCH  10  13
ENDBRANCH   9  10
ENDBRANCH   1   9
TORSDOF 4
