REMARK  Name = Methohexital
REMARK  8 active torsions:
REMARK  status: ('A' for Active; 'I' for Inactive)
REMARK    1  A    between atoms: C_1  and  C_2
REMARK    2  A    between atoms: C_2  and  C_3
REMARK    3  A    between atoms: C_4  and  C_5
REMARK    4  A    between atoms: C_5  and  C_6
REMARK    5  A    between atoms: C_5  and  C_7
REMARK    6  A    between atoms: C_7  and  C_8
REMARK    7  A    between atoms: C_8  and  C_9
REMARK    8  A    between atoms: N_16  and  C_17
REMARK                            x       y       z     vdW  Elec       q    Type
REMARK                         _______ _______ _______ _____ _____    ______ ____
ROOT
ATOM      1  C   UNL     1       5.200  -1.092   4.242  0.00  0.00    +0.000 C 
ATOM      2  C   UNL     1       4.976   0.384   3.923  0.00  0.00    +0.000 C 
ATOM      3  O   UNL     1       3.880   0.945   3.977  0.00  0.00    +0.000 OA
ATOM      4  N   UNL     1       6.090   1.136   3.700  0.00  0.00    +0.000 N 
ATOM      5  C   UNL     1       7.359   0.692   3.468  0.00  0.00    +0.000 C 
ATOM      6  O   UNL     1       8.263   1.506   3.334  0.00  0.00    +0.000 OA
ATOM      7  N   UNL     1       7.533  -0.674   3.435  0.00  0.00    +0.000 N 
ATOM      8  C   UNL     1       8.846  -1.212   3.122  0.00  0.00    +0.000 C 
ATOM      9  C   UNL     1       6.589  -1.595   3.846  0.00  0.00    +0.000 C 
ATOM     10  O   UNL     1       6.920  -2.775   4.004  0.00  0.00    +0.000 OA
ATOM     11  H   UNL     1       5.953   2.136   3.665  0.00  0.00    +0.000 HD
ENDROOT
BRANCH   1  12
ATOM     12  C   UNL     1       4.061  -1.983   3.616  0.00  0.00    +0.000 C 
ATOM     13  C   UNL     1       4.481  -3.407   3.222  0.00  0.00    +0.000 C 
BRANCH  12  15
ATOM     14  C   UNL     1       3.120  -0.716   1.274  0.00  0.00    +0.000 C 
ATOM     15  C   UNL     1       3.554  -1.301   2.355  0.00  0.00    +0.000 C 
BRANCH  14  17
ATOM     16  C   UNL     1       1.095  -0.029   0.006  0.00  0.00    +0.000 C 
ATOM     17  C   UNL     1       2.613  -0.034   0.014  0.00  0.00    +0.000 C 
ENDBRANCH  14  17
ENDBRANCH  12  15
ENDBRANCH   1  12
BRANCH   1  18
ATOM     18  C   UNL     1       5.118  -1.174   5.794  0.00  0.00    +0.000 C 
BRANCH  18  19
ATOM     19  C   UNL     1       6.153  -0.341   6.514  0.00  0.00    +0.000 C 
ATOM     20  C   UNL     1       6.247  -0.217   7.838  0.00  0.00    +0.000 C 
ENDBRANCH  18  19
ENDBRANCH   1  18
TORSDOF 5
