REMARK  Name = Methocarbamol
REMARK  9 active torsions:
REMARK  status: ('A' for Active; 'I' for Inactive)
REMARK    1  A    between atoms: C_1  and  O_2
REMARK    2  A    between atoms: O_2  and  C_3
REMARK    3  A    between atoms: C_4  and  O_5
REMARK    4  A    between atoms: O_5  and  C_6
REMARK    5  A    between atoms: C_6  and  C_7
REMARK    6  A    between atoms: C_7  and  O_8
REMARK    7  A    between atoms: C_7  and  C_9
REMARK    8  A    between atoms: C_9  and  O_10
REMARK    9  A    between atoms: O_10  and  C_11
REMARK                            x       y       z     vdW  Elec       q    Type
REMARK                         _______ _______ _______ _____ _____    ______ ____
ROOT
ATOM      1  C   UNL     1       3.648  -0.235   2.279  0.00  0.00    +0.000 C 
ENDROOT
BRANCH   1   2
ATOM      2  O   UNL     1       4.558  -1.129   1.629  0.00  0.00    +0.000 OA
BRANCH   2   4
ATOM      3  C   UNL     1       3.115  -1.107  -0.401  0.00  0.00    +0.000 A 
ATOM      4  C   UNL     1       4.208  -1.550   0.364  0.00  0.00    +0.000 A 
ATOM      5  C   UNL     1       5.042  -2.546  -0.168  0.00  0.00    +0.000 A 
ATOM      6  C   UNL     1       4.728  -3.174  -1.378  0.00  0.00    +0.000 A 
ATOM      7  C   UNL     1       3.608  -2.769  -2.098  0.00  0.00    +0.000 A 
ATOM      8  C   UNL     1       2.816  -1.726  -1.620  0.00  0.00    +0.000 A 
BRANCH   3  10
ATOM      9  C   UNL     1       1.045  -0.052   0.005  0.00  0.00    +0.000 C 
ATOM     10  O   UNL     1       2.461   0.044  -0.045  0.00  0.00    +0.000 OA
ENDBRANCH   3  10
ENDBRANCH   2   4
ENDBRANCH   1   2
BRANCH   1  11
ATOM     11  C   UNL     1       4.059   0.067   3.725  0.00  0.00    +0.000 C 
BRANCH  11  12
ATOM     12  O   UNL     1       5.387   0.604   3.750  0.00  0.00    +0.000 OA
ATOM     13  H   UNL     1       5.415   1.380   3.165  0.00  0.00    +0.000 HD
ENDBRANCH  11  12
BRANCH  11  14
ATOM     14  C   UNL     1       3.073   1.088   4.329  0.00  0.00    +0.000 C 
BRANCH  14  15
ATOM     15  O   UNL     1       3.438   1.376   5.693  0.00  0.00    +0.000 OA
BRANCH  15  16
ATOM     16  C   UNL     1       2.770   2.276   6.454  0.00  0.00    +0.000 C 
ATOM     17  N   UNL     1       1.693   2.891   5.898  0.00  0.00    +0.000 N 
ATOM     18  O   UNL     1       3.102   2.534   7.607  0.00  0.00    +0.000 OA
ATOM     19  H   UNL     1       1.353   2.740   4.965  0.00  0.00    +0.000 HD
ATOM     20  H   UNL     1       1.202   3.548   6.489  0.00  0.00    +0.000 HD
ENDBRANCH  15  16
ENDBRANCH  14  15
ENDBRANCH  11  14
ENDBRANCH   1  11
TORSDOF 8
