REMARK  Name = Methyl aminolevulinate
REMARK  7 active torsions:
REMARK  status: ('A' for Active; 'I' for Inactive)
REMARK    1  A    between atoms: C_1  and  O_2
REMARK    2  A    between atoms: O_2  and  C_3
REMARK    3  A    between atoms: C_3  and  C_5
REMARK    4  A    between atoms: C_5  and  C_6
REMARK    5  A    between atoms: C_6  and  C_7
REMARK    6  A    between atoms: C_7  and  C_9
REMARK    7  A    between atoms: C_9  and  N_10
REMARK                            x       y       z     vdW  Elec       q    Type
REMARK                         _______ _______ _______ _____ _____    ______ ____
ROOT
ATOM      1  C   UNL     1       5.232   2.671   0.515  0.00  0.00    +0.000 C 
ENDROOT
BRANCH   1   2
ATOM      2  C   UNL     1       6.750   2.627   0.515  0.00  0.00    +0.000 C 
ATOM      3  O   UNL     1       7.354   1.561   0.372  0.00  0.00    +0.000 OA
BRANCH   2   4
ATOM      4  C   UNL     1       7.476   3.963   0.753  0.00  0.00    +0.000 C 
BRANCH   4   5
ATOM      5  N   UNL     1       8.929   3.772   0.696  0.00  0.00    +0.000 NA
ATOM      6  H   UNL     1       9.194   3.052   1.370  0.00  0.00    +0.000 HD
ATOM      7  H   UNL     1       9.422   4.625   0.946  0.00  0.00    +0.000 HD
ENDBRANCH   4   5
ENDBRANCH   2   4
ENDBRANCH   1   2
BRANCH   1   8
ATOM      8  C   UNL     1       4.625   1.285   0.261  0.00  0.00    +0.000 C 
BRANCH   8   9
ATOM      9  C   UNL     1       3.116   1.346   0.274  0.00  0.00    +0.000 C 
ATOM     10  O   UNL     1       2.469   2.370   0.466  0.00  0.00    +0.000 OA
BRANCH   9  12
ATOM     11  C   UNL     1       1.137   0.108   0.046  0.00  0.00    +0.000 C 
ATOM     12  O   UNL     1       2.570   0.118   0.048  0.00  0.00    +0.000 OA
ENDBRANCH   9  12
ENDBRANCH   8   9
ENDBRANCH   1   8
TORSDOF 6
