REMARK  Name = Meticrane
REMARK  3 active torsions:
REMARK  status: ('A' for Active; 'I' for Inactive)
REMARK    1  A    between atoms: C_1  and  C_2
REMARK    2  A    between atoms: C_7  and  S_8
REMARK    3  A    between atoms: S_8  and  N_9
REMARK                            x       y       z     vdW  Elec       q    Type
REMARK                         _______ _______ _______ _____ _____    ______ ____
ROOT
ATOM      1  C   UNL     1       1.032   0.078  -0.045  0.00  0.00    +0.000 C 
ATOM      2  C   UNL     1       2.527  -0.010  -0.051  0.00  0.00    +0.000 A 
ATOM      3  C   UNL     1       3.269   1.191  -0.096  0.00  0.00    +0.000 A 
ATOM      4  C   UNL     1       4.670   1.195  -0.064  0.00  0.00    +0.000 A 
ATOM      5  C   UNL     1       5.309  -0.050  -0.001  0.00  0.00    +0.000 A 
ATOM      6  C   UNL     1       4.600  -1.254   0.031  0.00  0.00    +0.000 A 
ATOM      7  C   UNL     1       3.207  -1.238   0.008  0.00  0.00    +0.000 A 
ATOM      8  S   UNL     1       7.067  -0.188   0.027  0.00  0.00    +0.000 S 
ATOM      9  O   UNL     1       7.428  -1.157  -0.990  0.00  0.00    +0.000 OA
ATOM     10  O   UNL     1       7.445  -0.360   1.414  0.00  0.00    +0.000 OA
ATOM     11  C   UNL     1       7.595   1.411  -0.519  0.00  0.00    +0.000 C 
ATOM     12  C   UNL     1       6.863   2.479   0.270  0.00  0.00    +0.000 C 
ATOM     13  C   UNL     1       5.389   2.525  -0.134  0.00  0.00    +0.000 C 
ENDROOT
BRANCH   7  14
ATOM     14  S   UNL     1       2.386  -2.823   0.112  0.00  0.00    +0.000 S 
ATOM     15  O   UNL     1       2.956  -3.528   1.238  0.00  0.00    +0.000 OA
ATOM     16  O   UNL     1       0.964  -2.671  -0.067  0.00  0.00    +0.000 OA
BRANCH  14  17
ATOM     17  N   UNL     1       2.937  -3.563  -1.276  0.00  0.00    +0.000 NA
ATOM     18  H   UNL     1       3.871  -3.957  -1.244  0.00  0.00    +0.000 HD
ATOM     19  H   UNL     1       2.545  -3.223  -2.149  0.00  0.00    +0.000 HD
ENDBRANCH  14  17
ENDBRANCH   7  14
TORSDOF 2
