REMARK  Name = Metipranolol
REMARK  15 active torsions:
REMARK  status: ('A' for Active; 'I' for Inactive)
REMARK    1  A    between atoms: C_1  and  C_2
REMARK    2  A    between atoms: C_2  and  C_3
REMARK    3  A    between atoms: C_2  and  N_4
REMARK    4  A    between atoms: N_4  and  C_5
REMARK    5  A    between atoms: C_5  and  C_6
REMARK    6  A    between atoms: C_6  and  O_7
REMARK    7  A    between atoms: C_6  and  C_8
REMARK    8  A    between atoms: C_8  and  O_9
REMARK    9  A    between atoms: O_9  and  C_10
REMARK   10  A    between atoms: C_11  and  C_12
REMARK   11  A    between atoms: C_13  and  C_14
REMARK   12  A    between atoms: C_15  and  O_16
REMARK   13  A    between atoms: O_16  and  C_17
REMARK   14  A    between atoms: C_17  and  C_18
REMARK   15  A    between atoms: C_20  and  C_21
REMARK                            x       y       z     vdW  Elec       q    Type
REMARK                         _______ _______ _______ _____ _____    ______ ____
ROOT
ATOM      1  C   UNL     1       8.144  -2.014  -3.929  0.00  0.00    +0.000 A 
ATOM      2  C   UNL     1       8.745  -1.731  -5.170  0.00  0.00    +0.000 A 
ATOM      3  C   UNL     1       7.860  -1.238  -6.288  0.00  0.00    +0.000 C 
ATOM      4  C   UNL     1      10.158  -1.889  -5.335  0.00  0.00    +0.000 A 
ATOM      5  C   UNL     1      10.798  -1.604  -6.676  0.00  0.00    +0.000 C 
ATOM      6  C   UNL     1      10.922  -2.281  -4.202  0.00  0.00    +0.000 A 
ATOM      7  C   UNL     1      10.285  -2.443  -2.954  0.00  0.00    +0.000 A 
ATOM      8  C   UNL     1      10.943  -2.589  -1.637  0.00  0.00    +0.000 C 
ATOM      9  C   UNL     1       8.908  -2.421  -2.861  0.00  0.00    +0.000 A 
ENDROOT
BRANCH   1  10
ATOM     10  O   UNL     1       6.791  -1.907  -3.789  0.00  0.00    +0.000 OA
BRANCH  10  11
ATOM     11  C   UNL     1       6.380  -1.295  -2.561  0.00  0.00    +0.000 C 
BRANCH  11  12
ATOM     12  C   UNL     1       4.857  -1.274  -2.547  0.00  0.00    +0.000 C 
BRANCH  12  13
ATOM     13  O   UNL     1       4.346  -0.524  -3.655  0.00  0.00    +0.000 OA
ATOM     14  H   UNL     1       4.757   0.355  -3.625  0.00  0.00    +0.000 HD
ENDBRANCH  12  13
BRANCH  12  15
ATOM     15  C   UNL     1       4.385  -0.642  -1.238  0.00  0.00    +0.000 C 
BRANCH  15  16
ATOM     16  N   UNL     1       2.924  -0.639  -1.171  0.00  0.00    +0.000 NA
ATOM     17  H   UNL     1       2.561  -0.175  -2.009  0.00  0.00    +0.000 HD
BRANCH  16  19
ATOM     18  C   UNL     1       0.897   0.002   0.008  0.00  0.00    +0.000 C 
ATOM     19  C   UNL     1       2.424  -0.005   0.047  0.00  0.00    +0.000 C 
ATOM     20  C   UNL     1       2.894  -0.763   1.290  0.00  0.00    +0.000 C 
ENDBRANCH  16  19
ENDBRANCH  15  16
ENDBRANCH  12  15
ENDBRANCH  11  12
ENDBRANCH  10  11
ENDBRANCH   1  10
BRANCH   6  21
ATOM     21  O   UNL     1      12.391  -2.461  -4.355  0.00  0.00    +0.000 OA
BRANCH  21  22
ATOM     22  C   UNL     1      13.567  -3.036  -3.702  0.00  0.00    +0.000 C 
ATOM     23  C   UNL     1      13.237  -3.757  -2.425  0.00  0.00    +0.000 C 
ATOM     24  O   UNL     1      14.689  -2.905  -4.113  0.00  0.00    +0.000 OA
ENDBRANCH  21  22
ENDBRANCH   6  21
TORSDOF 9
