REMARK  Name = Metixene
REMARK  3 active torsions:
REMARK  status: ('A' for Active; 'I' for Inactive)
REMARK    1  A    between atoms: C_1  and  N_2
REMARK    2  A    between atoms: C_6  and  C_7
REMARK    3  A    between atoms: C_7  and  C_8
REMARK                            x       y       z     vdW  Elec       q    Type
REMARK                         _______ _______ _______ _____ _____    ______ ____
ROOT
ATOM      1  C   UNL     1       1.209  -3.841   0.058  0.00  0.00    +0.000 C 
ATOM      2  C   UNL     1       1.726  -4.082   1.469  0.00  0.00    +0.000 A 
ATOM      3  C   UNL     1       3.114  -3.956   1.699  0.00  0.00    +0.000 A 
ATOM      4  C   UNL     1       3.674  -4.123   2.958  0.00  0.00    +0.000 A 
ATOM      5  C   UNL     1       2.859  -4.474   4.025  0.00  0.00    +0.000 A 
ATOM      6  C   UNL     1       1.492  -4.631   3.817  0.00  0.00    +0.000 A 
ATOM      7  C   UNL     1       0.915  -4.433   2.555  0.00  0.00    +0.000 A 
ATOM      8  S   UNL     1      -0.829  -4.674   2.470  0.00  0.00    +0.000 S 
ATOM      9  C   UNL     1      -1.216  -4.394   0.771  0.00  0.00    +0.000 A 
ATOM     10  C   UNL     1      -2.586  -4.432   0.459  0.00  0.00    +0.000 A 
ATOM     11  C   UNL     1      -3.045  -4.135  -0.819  0.00  0.00    +0.000 A 
ATOM     12  C   UNL     1      -2.131  -3.813  -1.813  0.00  0.00    +0.000 A 
ATOM     13  C   UNL     1      -0.765  -3.813  -1.526  0.00  0.00    +0.000 A 
ATOM     14  C   UNL     1      -0.277  -4.066  -0.221  0.00  0.00    +0.000 A 
ENDROOT
BRANCH   1  15
ATOM     15  C   UNL     1       1.740  -2.456  -0.463  0.00  0.00    +0.000 C 
BRANCH  15  21
ATOM     16  C   UNL     1      -2.405   0.108  -0.099  0.00  0.00    +0.000 C 
ATOM     17  N   UNL     1      -1.002   0.158   0.325  0.00  0.00    +0.000 NA
ATOM     18  C   UNL     1      -0.310   1.328  -0.207  0.00  0.00    +0.000 C 
ATOM     19  C   UNL     1       1.164   1.310   0.211  0.00  0.00    +0.000 C 
ATOM     20  C   UNL     1       1.866   0.051  -0.292  0.00  0.00    +0.000 C 
ATOM     21  C   UNL     1       1.126  -1.199   0.196  0.00  0.00    +0.000 C 
ATOM     22  C   UNL     1      -0.358  -1.063  -0.144  0.00  0.00    +0.000 C 
ENDBRANCH  15  21
ENDBRANCH   1  15
TORSDOF 2
