REMARK  Name = Meticillin
REMARK  10 active torsions:
REMARK  status: ('A' for Active; 'I' for Inactive)
REMARK    1  A    between atoms: C_4  and  C_5
REMARK    2  A    between atoms: C_4  and  C_6
REMARK    3  A    between atoms: CA_7  and  C_25
REMARK    4  A    between atoms: CA_11  and  N_12
REMARK    5  A    between atoms: C_13  and  C_15
REMARK    6  A    between atoms: C_16  and  O_17
REMARK    7  A    between atoms: O_17  and  C_18
REMARK    8  A    between atoms: C_22  and  O_23
REMARK    9  A    between atoms: O_23  and  C_24
REMARK   10  A    between atoms: C_25  and  O_26
REMARK                            x       y       z     vdW  Elec       q    Type
REMARK                         _______ _______ _______ _____ _____    ______ ____
ROOT
ATOM      1  C   UNL     1       2.062   0.092   0.014  0.00  0.00    +0.000 C 
ATOM      2  S   UNL     1       2.470  -1.172  -1.239  0.00  0.00    +0.000 S 
ATOM      3  C   UNL     1       2.786  -2.441   0.085  0.00  0.00    +0.000 C 
ATOM      4  C   UNL     1       3.722  -3.479  -0.537  0.00  0.00    +0.000 C 
ATOM      5  C   UNL     1       1.405  -3.022   0.439  0.00  0.00    +0.000 C 
ATOM      6  CA  UNL     1       3.473  -1.626   1.202  0.00  0.00    +0.000 C 
ATOM      7  N   UNL     1       2.833  -0.301   1.205  0.00  0.00    +0.000 N 
ATOM      8  C   UNL     1       3.608   0.838   1.192  0.00  0.00    +0.000 C 
ATOM      9  O   UNL     1       4.673   1.101   1.686  0.00  0.00    +0.000 OA
ATOM     10  CA  UNL     1       2.826   1.425   0.011  0.00  0.00    +0.000 C 
ENDROOT
BRANCH  10  11
ATOM     11  N   UNL     1       3.724   1.758  -1.133  0.00  0.00    +0.000 N 
ATOM     12  C   UNL     1       3.900   3.080  -1.483  0.00  0.00    +0.000 C 
ATOM     13  O   UNL     1       3.505   4.014  -0.796  0.00  0.00    +0.000 OA
ATOM     14  H   UNL     1       4.012   1.032  -1.784  0.00  0.00    +0.000 HD
BRANCH  12  15
ATOM     15  C   UNL     1       4.513   3.335  -2.792  0.00  0.00    +0.000 A 
ATOM     16  C   UNL     1       5.788   3.943  -2.854  0.00  0.00    +0.000 A 
ATOM     17  C   UNL     1       6.259   4.392  -4.100  0.00  0.00    +0.000 A 
ATOM     18  C   UNL     1       5.552   4.127  -5.272  0.00  0.00    +0.000 A 
ATOM     19  C   UNL     1       4.318   3.484  -5.202  0.00  0.00    +0.000 A 
ATOM     20  C   UNL     1       3.760   3.113  -3.970  0.00  0.00    +0.000 A 
BRANCH  16  21
ATOM     21  O   UNL     1       6.692   4.152  -1.837  0.00  0.00    +0.000 OA
ATOM     22  C   UNL     1       6.423   3.597  -0.551  0.00  0.00    +0.000 C 
ENDBRANCH  16  21
BRANCH  20  23
ATOM     23  O   UNL     1       2.492   2.600  -4.132  0.00  0.00    +0.000 OA
ATOM     24  C   UNL     1       1.758   2.171  -3.002  0.00  0.00    +0.000 C 
ENDBRANCH  20  23
ENDBRANCH  12  15
ENDBRANCH  10  11
BRANCH   6  25
ATOM     25  C   UNL     1       3.512  -2.173   2.642  0.00  0.00    +0.000 C 
ATOM     26  OXT UNL     1       3.959  -1.525   3.581  0.00  0.00    +0.000 OA
BRANCH  25  27
ATOM     27  O   UNL     1       3.053  -3.416   2.882  0.00  0.00    +0.000 OA
ATOM     28  H   UNL     1       2.897  -4.033   2.151  0.00  0.00    +0.000 HD
ENDBRANCH  25  27
ENDBRANCH   6  25
TORSDOF 6
