REMARK  Name = Metolazone
REMARK  5 active torsions:
REMARK  status: ('A' for Active; 'I' for Inactive)
REMARK    1  A    between atoms: C_1  and  C_2
REMARK    2  A    between atoms: C_8  and  S_21
REMARK    3  A    between atoms: N_13  and  C_14
REMARK    4  A    between atoms: C_19  and  C_20
REMARK    5  A    between atoms: S_21  and  N_22
REMARK                            x       y       z     vdW  Elec       q    Type
REMARK                         _______ _______ _______ _____ _____    ______ ____
ROOT
ATOM      1  C   UNL     1       0.977   0.078   0.118  0.00  0.00    +0.000 C 
ATOM      2  C   UNL     1       2.496  -0.045   0.173  0.00  0.00    +0.000 C 
ATOM      3  N   UNL     1       3.097   1.194   0.665  0.00  0.00    +0.000 N 
ATOM      4  C   UNL     1       4.468   1.222   0.879  0.00  0.00    +0.000 A 
ATOM      5  C   UNL     1       5.165   2.429   1.038  0.00  0.00    +0.000 A 
ATOM      6  C   UNL     1       6.560   2.452   1.242  0.00  0.00    +0.000 A 
ATOM      7 CL   UNL     1       7.300   4.008   1.393  0.00  0.00    +0.000 Cl
ATOM      8  C   UNL     1       7.274   1.251   1.284  0.00  0.00    +0.000 A 
ATOM      9  C   UNL     1       6.594   0.035   1.109  0.00  0.00    +0.000 A 
ATOM     10  C   UNL     1       5.205   0.029   0.901  0.00  0.00    +0.000 A 
ATOM     11  C   UNL     1       4.450  -1.261   0.852  0.00  0.00    +0.000 C 
ATOM     12  O   UNL     1       5.057  -2.323   0.772  0.00  0.00    +0.000 OA
ATOM     13  N   UNL     1       3.063  -1.136   0.945  0.00  0.00    +0.000 N 
ATOM     14  H   UNL     1       2.520   2.012   0.809  0.00  0.00    +0.000 HD
ENDROOT
BRANCH  13  15
ATOM     15  C   UNL     1       2.282  -2.026   1.755  0.00  0.00    +0.000 A 
ATOM     16  C   UNL     1       1.179  -2.709   1.220  0.00  0.00    +0.000 A 
ATOM     17  C   UNL     1       0.265  -3.389   2.036  0.00  0.00    +0.000 A 
ATOM     18  C   UNL     1       0.518  -3.528   3.392  0.00  0.00    +0.000 A 
ATOM     19  C   UNL     1       1.678  -2.976   3.926  0.00  0.00    +0.000 A 
ATOM     20  C   UNL     1       2.530  -2.169   3.140  0.00  0.00    +0.000 A 
ATOM     21  C   UNL     1       3.596  -1.384   3.853  0.00  0.00    +0.000 C 
ENDBRANCH  13  15
BRANCH   8  22
ATOM     22  S   UNL     1       9.021   1.213   1.602  0.00  0.00    +0.000 S 
ATOM     23  O   UNL     1       9.279   1.968   2.810  0.00  0.00    +0.000 OA
ATOM     24  O   UNL     1       9.481  -0.142   1.435  0.00  0.00    +0.000 OA
BRANCH  22  25
ATOM     25  N   UNL     1       9.644   2.070   0.314  0.00  0.00    +0.000 NA
ATOM     26  H   UNL     1       9.531   3.079   0.357  0.00  0.00    +0.000 HD
ATOM     27  H   UNL     1       9.663   1.589  -0.580  0.00  0.00    +0.000 HD
ENDBRANCH  22  25
ENDBRANCH   8  22
TORSDOF 3
