REMARK  Name = Metoclopramide
REMARK  11 active torsions:
REMARK  status: ('A' for Active; 'I' for Inactive)
REMARK    1  A    between atoms: C_1  and  C_2
REMARK    2  A    between atoms: C_2  and  N_3
REMARK    3  A    between atoms: N_3  and  C_4
REMARK    4  A    between atoms: N_3  and  C_6
REMARK    5  A    between atoms: C_4  and  C_5
REMARK    6  A    between atoms: C_6  and  C_7
REMARK    7  A    between atoms: C_7  and  N_8
REMARK    8  A    between atoms: C_9  and  C_11
REMARK    9  A    between atoms: C_15  and  N_16
REMARK   10  A    between atoms: C_18  and  O_19
REMARK   11  A    between atoms: O_19  and  C_20
REMARK                            x       y       z     vdW  Elec       q    Type
REMARK                         _______ _______ _______ _____ _____    ______ ____
ROOT
ATOM      1  C   UNL     1       8.759  -2.622  -3.054  0.00  0.00    +0.000 A 
ATOM      2  C   UNL     1       9.448  -2.579  -4.280  0.00  0.00    +0.000 A 
ATOM      3  C   UNL     1      10.847  -2.577  -4.302  0.00  0.00    +0.000 A 
ATOM      4 CL   UNL     1      11.658  -2.504  -5.829  0.00  0.00    +0.000 Cl
ATOM      5  C   UNL     1      11.587  -2.639  -3.112  0.00  0.00    +0.000 A 
ATOM      6  C   UNL     1      10.887  -2.689  -1.902  0.00  0.00    +0.000 A 
ATOM      7  C   UNL     1       9.483  -2.690  -1.853  0.00  0.00    +0.000 A 
ENDROOT
BRANCH   1   9
ATOM      8  N   UNL     1       6.590  -1.857  -2.184  0.00  0.00    +0.000 N 
ATOM      9  C   UNL     1       7.265  -2.645  -3.104  0.00  0.00    +0.000 C 
ATOM     10  O   UNL     1       6.704  -3.306  -3.963  0.00  0.00    +0.000 OA
ATOM     11  H   UNL     1       7.119  -1.334  -1.499  0.00  0.00    +0.000 HD
BRANCH   8  12
ATOM     12  C   UNL     1       5.136  -1.832  -2.161  0.00  0.00    +0.000 C 
BRANCH  12  13
ATOM     13  C   UNL     1       4.523  -0.864  -1.119  0.00  0.00    +0.000 C 
BRANCH  13  14
ATOM     14  N   UNL     1       3.026  -0.812  -1.112  0.00  0.00    +0.000 NA
BRANCH  14  16
ATOM     15  C   UNL     1       1.080   0.108   0.260  0.00  0.00    +0.000 C 
ATOM     16  C   UNL     1       2.583   0.079  -0.014  0.00  0.00    +0.000 C 
ENDBRANCH  14  16
BRANCH  14  17
ATOM     17  C   UNL     1       2.536  -0.394  -2.443  0.00  0.00    +0.000 C 
ATOM     18  C   UNL     1       1.036  -0.477  -2.683  0.00  0.00    +0.000 C 
ENDBRANCH  14  17
ENDBRANCH  13  14
ENDBRANCH  12  13
ENDBRANCH   8  12
ENDBRANCH   1   9
BRANCH   5  19
ATOM     19  N   UNL     1      12.976  -2.559  -3.085  0.00  0.00    +0.000 N 
ATOM     20  H   UNL     1      13.484  -2.595  -3.962  0.00  0.00    +0.000 HD
ATOM     21  H   UNL     1      13.494  -2.688  -2.227  0.00  0.00    +0.000 HD
ENDBRANCH   5  19
BRANCH   7  22
ATOM     22  O   UNL     1       8.770  -2.771  -0.684  0.00  0.00    +0.000 OA
ATOM     23  C   UNL     1       9.520  -2.882   0.522  0.00  0.00    +0.000 C 
ENDBRANCH   7  22
TORSDOF 8
