REMARK  Name = Metoprolol
REMARK  13 active torsions:
REMARK  status: ('A' for Active; 'I' for Inactive)
REMARK    1  A    between atoms: C_1  and  O_2
REMARK    2  A    between atoms: O_2  and  C_3
REMARK    3  A    between atoms: C_3  and  C_4
REMARK    4  A    between atoms: C_4  and  C_5
REMARK    5  A    between atoms: C_8  and  O_9
REMARK    6  A    between atoms: O_9  and  C_10
REMARK    7  A    between atoms: C_10  and  C_11
REMARK    8  A    between atoms: C_11  and  O_12
REMARK    9  A    between atoms: C_11  and  C_13
REMARK   10  A    between atoms: C_13  and  N_14
REMARK   11  A    between atoms: N_14  and  C_15
REMARK   12  A    between atoms: C_15  and  C_16
REMARK   13  A    between atoms: C_15  and  C_17
REMARK                            x       y       z     vdW  Elec       q    Type
REMARK                         _______ _______ _______ _____ _____    ______ ____
ROOT
ATOM      1  O   UNL     1       6.283  -6.659  -0.913  0.00  0.00    +0.000 OA
ENDROOT
BRANCH   1   5
ATOM      2  C   UNL     1       4.878  -2.760  -0.450  0.00  0.00    +0.000 A 
ATOM      3  C   UNL     1       4.053  -3.893  -0.335  0.00  0.00    +0.000 A 
ATOM      4  C   UNL     1       4.577  -5.174  -0.460  0.00  0.00    +0.000 A 
ATOM      5  C   UNL     1       5.915  -5.354  -0.765  0.00  0.00    +0.000 A 
ATOM      6  C   UNL     1       6.749  -4.239  -0.900  0.00  0.00    +0.000 A 
ATOM      7  C   UNL     1       6.231  -2.951  -0.737  0.00  0.00    +0.000 A 
BRANCH   2   8
ATOM      8  C   UNL     1       4.363  -1.359  -0.200  0.00  0.00    +0.000 C 
BRANCH   8   9
ATOM      9  C   UNL     1       2.841  -1.285  -0.175  0.00  0.00    +0.000 C 
BRANCH   9  11
ATOM     10  C   UNL     1       0.950   0.030   0.094  0.00  0.00    +0.000 C 
ATOM     11  O   UNL     1       2.375   0.038   0.068  0.00  0.00    +0.000 OA
ENDBRANCH   9  11
ENDBRANCH   8   9
ENDBRANCH   2   8
ENDBRANCH   1   5
BRANCH   1  12
ATOM     12  C   UNL     1       7.598  -6.878  -1.406  0.00  0.00    +0.000 C 
BRANCH  12  13
ATOM     13  C   UNL     1       7.793  -8.374  -1.673  0.00  0.00    +0.000 C 
BRANCH  13  14
ATOM     14  O   UNL     1       6.930  -8.835  -2.724  0.00  0.00    +0.000 OA
ATOM     15  H   UNL     1       7.102  -8.296  -3.513  0.00  0.00    +0.000 HD
ENDBRANCH  13  14
BRANCH  13  16
ATOM     16  C   UNL     1       9.255  -8.600  -2.074  0.00  0.00    +0.000 C 
BRANCH  16  17
ATOM     17  N   UNL     1       9.536 -10.020  -2.286  0.00  0.00    +0.000 NA
ATOM     18  H   UNL     1       8.873 -10.386  -2.974  0.00  0.00    +0.000 HD
BRANCH  17  19
ATOM     19  C   UNL     1      10.919 -10.266  -2.701  0.00  0.00    +0.000 C 
ATOM     20  C   UNL     1      11.910  -9.815  -1.625  0.00  0.00    +0.000 C 
ATOM     21  C   UNL     1      11.098 -11.763  -2.955  0.00  0.00    +0.000 C 
ENDBRANCH  17  19
ENDBRANCH  16  17
ENDBRANCH  13  16
ENDBRANCH  12  13
ENDBRANCH   1  12
TORSDOF 10
