REMARK  Name = Metocurine
REMARK  12 active torsions:
REMARK  status: ('A' for Active; 'I' for Inactive)
REMARK    1  A    between atoms: N_14  and  C_15
REMARK    2  A    between atoms: N_14  and  C_16
REMARK    3  A    between atoms: C_25  and  O_26
REMARK    4  A    between atoms: O_26  and  C_27
REMARK    5  A    between atoms: N_32  and  C_33
REMARK    6  A    between atoms: N_32  and  C_34
REMARK    7  A    between atoms: C_37  and  O_38
REMARK    8  A    between atoms: O_38  and  C_39
REMARK    9  A    between atoms: C_43  and  O_44
REMARK   10  A    between atoms: O_44  and  C_45
REMARK   11  A    between atoms: C_46  and  O_47
REMARK   12  A    between atoms: O_47  and  C_48
REMARK                            x       y       z     vdW  Elec       q    Type
REMARK                         _______ _______ _______ _____ _____    ______ ____
ROOT
ATOM      1  C   UNL     1       2.058   0.276  -0.346  0.00  0.00    +0.000 C 
ATOM      2  C   UNL     1       2.663  -0.625  -1.516  0.00  0.00    +0.000 C 
ATOM      3  C   UNL     1       4.188  -0.629  -1.582  0.00  0.00    +0.000 A 
ATOM      4  C   UNL     1       4.996   0.472  -1.302  0.00  0.00    +0.000 A 
ATOM      5  C   UNL     1       6.320   0.549  -0.929  0.00  0.00    +0.000 A 
ATOM      6  C   UNL     1       7.034  -0.570  -1.181  0.00  0.00    +0.000 A 
ATOM      7  O   UNL     1       8.288  -0.555  -0.612  0.00  0.00    +0.000 OA
ATOM      8  C   UNL     1       8.977  -1.738  -0.506  0.00  0.00    +0.000 A 
ATOM      9  C   UNL     1       8.628  -2.748   0.410  0.00  0.00    +0.000 A 
ATOM     10  C   UNL     1       9.275  -3.980   0.419  0.00  0.00    +0.000 A 
ATOM     11  C   UNL     1       8.862  -5.118   1.301  0.00  0.00    +0.000 C 
ATOM     12  C   UNL     1       7.468  -4.924   1.911  0.00  0.00    +0.000 C 
ATOM     13  N   UNL     1       7.472  -3.471   2.562  0.00  0.00    +0.000 N 
ATOM     14  C   UNL     1       8.250  -3.648   3.812  0.00  0.00    +0.000 C 
ATOM     15  C   UNL     1       6.465  -2.664   3.325  0.00  0.00    +0.000 C 
ATOM     16  C   UNL     1       7.513  -2.580   1.356  0.00  0.00    +0.000 C 
ATOM     17  C   UNL     1       6.166  -2.913   0.642  0.00  0.00    +0.000 C 
ATOM     18  C   UNL     1       4.890  -3.034   1.419  0.00  0.00    +0.000 A 
ATOM     19  C   UNL     1       4.383  -4.235   2.477  0.00  0.00    +0.000 A 
ATOM     20  C   UNL     1       2.800  -4.023   3.440  0.00  0.00    +0.000 A 
ATOM     21  O   UNL     1       2.275  -4.277   2.126  0.00  0.00    +0.000 OA
ATOM     22  C   UNL     1       2.815  -3.054   1.970  0.00  0.00    +0.000 A 
ATOM     23  C   UNL     1       3.849  -2.194   3.435  0.00  0.00    +0.000 A 
ATOM     24  C   UNL     1       4.121  -0.453   3.438  0.00  0.00    +0.000 A 
ATOM     25  C   UNL     1       3.421   0.418   2.098  0.00  0.00    +0.000 A 
ATOM     26  C   UNL     1       3.129   1.856   2.264  0.00  0.00    +0.000 C 
ATOM     27  C   UNL     1       2.042   2.297   1.206  0.00  0.00    +0.000 C 
ATOM     28  N   UNL     1       2.342   1.762  -0.294  0.00  0.00    +0.000 N 
ATOM     29  C   UNL     1       3.429   2.761  -0.638  0.00  0.00    +0.000 C 
ATOM     30  C   UNL     1       1.694   1.809  -1.666  0.00  0.00    +0.000 C 
ATOM     31  C   UNL     1       2.555  -0.428   0.747  0.00  0.00    +0.000 A 
ATOM     32  C   UNL     1       2.205  -2.192   0.650  0.00  0.00    +0.000 A 
ATOM     33  C   UNL     1       1.751  -2.484   3.613  0.00  0.00    +0.000 A 
ATOM     34  C   UNL     1       2.349  -1.356   2.571  0.00  0.00    +0.000 A 
ATOM     35  C   UNL     1       4.030  -1.617   1.548  0.00  0.00    +0.000 A 
ATOM     36  C   UNL     1      10.365  -4.167  -0.384  0.00  0.00    +0.000 A 
ATOM     37  C   UNL     1      10.775  -3.167  -1.233  0.00  0.00    +0.000 A 
ATOM     38  C   UNL     1      10.085  -1.928  -1.315  0.00  0.00    +0.000 A 
ATOM     39  C   UNL     1       6.351  -1.672  -1.773  0.00  0.00    +0.000 A 
ATOM     40  C   UNL     1       4.919  -1.762  -1.767  0.00  0.00    +0.000 A 
ENDROOT
BRANCH  23  41
ATOM     41  O   UNL     1       4.319  -2.698   4.688  0.00  0.00    +0.000 OA
ATOM     42  C   UNL     1       3.788  -3.102   5.962  0.00  0.00    +0.000 C 
ENDBRANCH  23  41
BRANCH  33  43
ATOM     43  O   UNL     1       1.435  -1.583   4.710  0.00  0.00    +0.000 OA
ATOM     44  C   UNL     1       1.365  -0.063   4.441  0.00  0.00    +0.000 C 
ENDBRANCH  33  43
BRANCH  37  45
ATOM     45  O   UNL     1      11.750  -3.514  -2.127  0.00  0.00    +0.000 OA
ATOM     46  C   UNL     1      12.911  -4.159  -1.633  0.00  0.00    +0.000 C 
ENDBRANCH  37  45
BRANCH  38  47
ATOM     47  O   UNL     1      10.415  -0.876  -2.151  0.00  0.00    +0.000 OA
ATOM     48  C   UNL     1      11.520  -1.257  -2.948  0.00  0.00    +0.000 C 
ENDBRANCH  38  47
TORSDOF 4
