REMARK  Name = Metronidazole
REMARK  5 active torsions:
REMARK  status: ('A' for Active; 'I' for Inactive)
REMARK    1  A    between atoms: C_1  and  C_2
REMARK    2  A    between atoms: C_5  and  N_10
REMARK    3  A    between atoms: N_6  and  C_7
REMARK    4  A    between atoms: C_7  and  C_8
REMARK    5  A    between atoms: C_8  and  O_9
REMARK                            x       y       z     vdW  Elec       q    Type
REMARK                         _______ _______ _______ _____ _____    ______ ____
ROOT
ATOM      1  C   UNL     1       0.981   0.208   0.086  0.00  0.00    +0.000 C 
ATOM      2  C   UNL     1       2.465   0.064   0.085  0.00  0.00    +0.000 A 
ATOM      3  N   UNL     1       3.277   1.104   0.076  0.00  0.00    +0.000 NA
ATOM      4  C   UNL     1       4.549   0.607   0.075  0.00  0.00    +0.000 A 
ATOM      5  C   UNL     1       4.521  -0.764   0.081  0.00  0.00    +0.000 A 
ATOM      6  N   UNL     1       3.187  -1.128   0.090  0.00  0.00    +0.000 N 
ENDROOT
BRANCH   5   7
ATOM      7  N   UNL     1       5.642  -1.646   0.075  0.00  0.00    +0.000 N 
ATOM      8  O   UNL     1       5.422  -2.865   0.070  0.00  0.00    +0.000 OA
ATOM      9  O   UNL     1       6.759  -1.123   0.069  0.00  0.00    +0.000 OA
ENDBRANCH   5   7
BRANCH   6  10
ATOM     10  C   UNL     1       2.686  -2.495   0.098  0.00  0.00    +0.000 C 
BRANCH  10  11
ATOM     11  C   UNL     1       1.177  -2.684   0.106  0.00  0.00    +0.000 C 
BRANCH  11  12
ATOM     12  O   UNL     1       0.804  -4.051   0.115  0.00  0.00    +0.000 OA
ATOM     13  H   UNL     1       1.021  -4.418  -0.758  0.00  0.00    +0.000 HD
ENDBRANCH  11  12
ENDBRANCH  10  11
ENDBRANCH   6  10
TORSDOF 4
