REMARK  Name = Metrizoic acid
REMARK  7 active torsions:
REMARK  status: ('A' for Active; 'I' for Inactive)
REMARK    1  A    between atoms: C_1  and  N_2
REMARK    2  A    between atoms: N_2  and  C_6
REMARK    3  A    between atoms: C_3  and  C_4
REMARK    4  A    between atoms: C_9  and  C_10
REMARK    5  A    between atoms: C_10  and  O_11
REMARK    6  A    between atoms: C_15  and  N_16
REMARK    7  A    between atoms: C_17  and  C_18
REMARK                            x       y       z     vdW  Elec       q    Type
REMARK                         _______ _______ _______ _____ _____    ______ ____
ROOT
ATOM      1  C   UNL     1       3.006   0.689   1.118  0.00  0.00    +0.000 A 
ATOM      2  C   UNL     1       2.806   0.585   2.527  0.00  0.00    +0.000 A 
ATOM      3  I   UNL     1       1.570  -1.121   3.207  0.00  0.00    +0.000 I 
ATOM      4  C   UNL     1       3.461   1.457   3.462  0.00  0.00    +0.000 A 
ATOM      5  C   UNL     1       4.448   2.347   2.909  0.00  0.00    +0.000 A 
ATOM      6  I   UNL     1       5.835   3.466   4.225  0.00  0.00    +0.000 I 
ATOM      7  C   UNL     1       4.657   2.539   1.483  0.00  0.00    +0.000 A 
ATOM      8  C   UNL     1       3.806   1.755   0.631  0.00  0.00    +0.000 A 
ATOM      9  I   UNL     1       3.007   2.334  -1.611  0.00  0.00    +0.000 I 
ENDROOT
BRANCH   1  11
ATOM     10  C   UNL     1       0.940  -0.020  -0.010  0.00  0.00    +0.000 C 
ATOM     11  N   UNL     1       2.394  -0.215   0.176  0.00  0.00    +0.000 N 
ATOM     12  C   UNL     1       3.095  -0.879  -0.858  0.00  0.00    +0.000 C 
ATOM     13  C   UNL     1       4.623  -0.916  -0.866  0.00  0.00    +0.000 C 
ATOM     14  O   UNL     1       2.505  -1.436  -1.791  0.00  0.00    +0.000 OA
ENDBRANCH   1  11
BRANCH   7  15
ATOM     15  N   UNL     1       5.738   3.444   1.133  0.00  0.00    +0.000 N 
ATOM     16  C   UNL     1       6.415   3.760  -0.021  0.00  0.00    +0.000 C 
ATOM     17  C   UNL     1       6.020   3.054  -1.244  0.00  0.00    +0.000 C 
ATOM     18  O   UNL     1       7.317   4.597  -0.037  0.00  0.00    +0.000 OA
ATOM     19  H   UNL     1       6.204   3.905   1.916  0.00  0.00    +0.000 HD
ENDBRANCH   7  15
BRANCH   4  20
ATOM     20  C   UNL     1       3.036   1.420   4.935  0.00  0.00    +0.000 C 
ATOM     21  O   UNL     1       2.096   0.744   5.358  0.00  0.00    +0.000 OA
BRANCH  20  22
ATOM     22  O   UNL     1       3.633   2.198   5.845  0.00  0.00    +0.000 OA
ATOM     23  H   UNL     1       4.356   2.780   5.560  0.00  0.00    +0.000 HD
ENDBRANCH  20  22
ENDBRANCH   4  20
TORSDOF 4
