REMARK  Name = Metyrosine
REMARK  7 active torsions:
REMARK  status: ('A' for Active; 'I' for Inactive)
REMARK    1  A    between atoms: C_1  and  C_2
REMARK    2  A    between atoms: C_2  and  N_3
REMARK    3  A    between atoms: C_2  and  C_4
REMARK    4  A    between atoms: C_2  and  C_12
REMARK    5  A    between atoms: C_4  and  C_5
REMARK    6  A    between atoms: C_8  and  O_9
REMARK    7  A    between atoms: C_12  and  O_13
REMARK                            x       y       z     vdW  Elec       q    Type
REMARK                         _______ _______ _______ _____ _____    ______ ____
ROOT
ATOM      1  C   UNL     1       3.002  -0.612   1.205  0.00  0.00    +0.000 C 
ATOM      2  C   UNL     1       2.501   0.132  -0.043  0.00  0.00    +0.000 C 
ENDROOT
BRANCH   2   3
ATOM      3  N   UNL     1       1.022   0.224  -0.000  0.00  0.00    +0.000 NA
ATOM      4  H   UNL     1       0.619   0.612  -0.848  0.00  0.00    +0.000 HD
ATOM      5  H   UNL     1       0.649   0.584   0.871  0.00  0.00    +0.000 HD
ENDBRANCH   2   3
BRANCH   2   6
ATOM      6  C   UNL     1       3.114   1.556  -0.040  0.00  0.00    +0.000 C 
ATOM      7  O   UNL     1       4.317   1.791  -0.048  0.00  0.00    +0.000 OA
BRANCH   6   8
ATOM      8  O   UNL     1       2.203   2.563  -0.024  0.00  0.00    +0.000 OA
ATOM      9  H   UNL     1       1.289   2.227  -0.004  0.00  0.00    +0.000 HD
ENDBRANCH   6   8
ENDBRANCH   2   6
BRANCH   2  10
ATOM     10  C   UNL     1       2.987  -0.607  -1.325  0.00  0.00    +0.000 C 
BRANCH  10  11
ATOM     11  C   UNL     1       2.521  -2.050  -1.422  0.00  0.00    +0.000 A 
ATOM     12  C   UNL     1       1.161  -2.356  -1.588  0.00  0.00    +0.000 A 
ATOM     13  C   UNL     1       0.710  -3.675  -1.583  0.00  0.00    +0.000 A 
ATOM     14  C   UNL     1       1.633  -4.703  -1.447  0.00  0.00    +0.000 A 
ATOM     15  C   UNL     1       2.986  -4.427  -1.289  0.00  0.00    +0.000 A 
ATOM     16  C   UNL     1       3.432  -3.104  -1.273  0.00  0.00    +0.000 A 
BRANCH  14  17
ATOM     17  O   UNL     1       1.251  -6.012  -1.465  0.00  0.00    +0.000 OA
ATOM     18  H   UNL     1       0.294  -6.054  -1.623  0.00  0.00    +0.000 HD
ENDBRANCH  14  17
ENDBRANCH  10  11
ENDBRANCH   2  10
TORSDOF 6
