REMARK  Name = Metyrapone
REMARK  5 active torsions:
REMARK  status: ('A' for Active; 'I' for Inactive)
REMARK    1  A    between atoms: C_1  and  C_2
REMARK    2  A    between atoms: C_2  and  C_3
REMARK    3  A    between atoms: C_2  and  C_4
REMARK    4  A    between atoms: C_2  and  C_12
REMARK    5  A    between atoms: C_4  and  C_6
REMARK                            x       y       z     vdW  Elec       q    Type
REMARK                         _______ _______ _______ _____ _____    ______ ____
ROOT
ATOM      1  C   UNL     1       0.995   0.099   0.192  0.00  0.00    +0.000 C 
ATOM      2  C   UNL     1       2.536   0.074   0.067  0.00  0.00    +0.000 C 
ATOM      3  C   UNL     1       3.042  -1.091   0.946  0.00  0.00    +0.000 C 
ENDROOT
BRANCH   2   4
ATOM      4  C   UNL     1       3.025   1.436   0.583  0.00  0.00    +0.000 A 
ATOM      5  C   UNL     1       2.494   2.622   0.053  0.00  0.00    +0.000 A 
ATOM      6  C   UNL     1       2.850   3.853   0.587  0.00  0.00    +0.000 A 
ATOM      7  C   UNL     1       3.754   3.871   1.631  0.00  0.00    +0.000 A 
ATOM      8  N   UNL     1       4.324   2.765   2.150  0.00  0.00    +0.000 NA
ATOM      9  C   UNL     1       3.957   1.581   1.610  0.00  0.00    +0.000 A 
ENDBRANCH   2   4
BRANCH   2  10
ATOM     10  C   UNL     1       3.025  -0.166  -1.398  0.00  0.00    +0.000 C 
ATOM     11  O   UNL     1       3.798   0.588  -1.995  0.00  0.00    +0.000 OA
BRANCH  10  12
ATOM     12  C   UNL     1       2.634  -1.408  -2.105  0.00  0.00    +0.000 A 
ATOM     13  C   UNL     1       3.600  -2.206  -2.700  0.00  0.00    +0.000 A 
ATOM     14  N   UNL     1       3.325  -3.408  -3.271  0.00  0.00    +0.000 NA
ATOM     15  C   UNL     1       2.038  -3.824  -3.243  0.00  0.00    +0.000 A 
ATOM     16  C   UNL     1       1.007  -3.082  -2.703  0.00  0.00    +0.000 A 
ATOM     17  C   UNL     1       1.311  -1.835  -2.181  0.00  0.00    +0.000 A 
ENDBRANCH  10  12
ENDBRANCH   2  10
TORSDOF 3
