REMARK  Name = Mexiletine
REMARK  7 active torsions:
REMARK  status: ('A' for Active; 'I' for Inactive)
REMARK    1  A    between atoms: C_1  and  C_2
REMARK    2  A    between atoms: C_2  and  N_3
REMARK    3  A    between atoms: C_2  and  C_4
REMARK    4  A    between atoms: C_4  and  O_5
REMARK    5  A    between atoms: O_5  and  C_6
REMARK    6  A    between atoms: C_7  and  C_8
REMARK    7  A    between atoms: C_12  and  C_13
REMARK                            x       y       z     vdW  Elec       q    Type
REMARK                         _______ _______ _______ _____ _____    ______ ____
ROOT
ATOM      1  C   UNL     1       5.112  -2.250  -1.581  0.00  0.00    +0.000 A 
ATOM      2  C   UNL     1       4.833  -2.586  -2.917  0.00  0.00    +0.000 A 
ATOM      3  C   UNL     1       3.880  -1.832  -3.801  0.00  0.00    +0.000 C 
ATOM      4  C   UNL     1       5.504  -3.674  -3.502  0.00  0.00    +0.000 A 
ATOM      5  C   UNL     1       6.479  -4.379  -2.799  0.00  0.00    +0.000 A 
ATOM      6  C   UNL     1       6.799  -4.002  -1.502  0.00  0.00    +0.000 A 
ATOM      7  C   UNL     1       6.130  -2.936  -0.879  0.00  0.00    +0.000 A 
ATOM      8  C   UNL     1       6.537  -2.548   0.517  0.00  0.00    +0.000 C 
ENDROOT
BRANCH   1   9
ATOM      9  O   UNL     1       4.522  -1.179  -0.955  0.00  0.00    +0.000 OA
BRANCH   9  10
ATOM     10  C   UNL     1       3.102  -1.311  -0.779  0.00  0.00    +0.000 C 
BRANCH  10  12
ATOM     11  C   UNL     1       1.050  -0.089   0.029  0.00  0.00    +0.000 C 
ATOM     12  C   UNL     1       2.580  -0.127   0.063  0.00  0.00    +0.000 C 
BRANCH  12  13
ATOM     13  N   UNL     1       3.043  -0.218   1.453  0.00  0.00    +0.000 NA
ATOM     14  H   UNL     1       2.722  -1.091   1.867  0.00  0.00    +0.000 HD
ATOM     15  H   UNL     1       2.646   0.540   2.004  0.00  0.00    +0.000 HD
ENDBRANCH  12  13
ENDBRANCH  10  12
ENDBRANCH   9  10
ENDBRANCH   1   9
TORSDOF 4
