REMARK  Name = Mezlocillin
REMARK  10 active torsions:
REMARK  status: ('A' for Active; 'I' for Inactive)
REMARK    1  A    between atoms: C_4  and  C_5
REMARK    2  A    between atoms: C_4  and  C_6
REMARK    3  A    between atoms: CA_7  and  C_35
REMARK    4  A    between atoms: CA_11  and  N_12
REMARK    5  A    between atoms: C_13  and  CA_15
REMARK    6  A    between atoms: CA_15  and  N_16
REMARK    7  A    between atoms: CA_15  and  C_29
REMARK    8  A    between atoms: N_22  and  S_25
REMARK    9  A    between atoms: S_25  and  C_26
REMARK   10  A    between atoms: C_35  and  O_36
REMARK                            x       y       z     vdW  Elec       q    Type
REMARK                         _______ _______ _______ _____ _____    ______ ____
ROOT
ATOM      1  CA  UNL     1       4.533   3.229  -2.944  0.00  0.00    +0.000 C 
ENDROOT
BRANCH   1   2
ATOM      2  N   UNL     1       3.975   2.859  -1.633  0.00  0.00    +0.000 N 
ATOM      3  C   UNL     1       3.800   1.548  -1.240  0.00  0.00    +0.000 C 
ATOM      4  O   UNL     1       4.192   0.606  -1.927  0.00  0.00    +0.000 OA
ATOM      5  N   UNL     1       3.298   1.396   0.043  0.00  0.00    +0.000 N 
ATOM      6  C   UNL     1       3.717   0.331   0.947  0.00  0.00    +0.000 C 
ATOM      7  C   UNL     1       3.124   0.771   2.299  0.00  0.00    +0.000 C 
ATOM      8  N   UNL     1       1.881   1.402   1.818  0.00  0.00    +0.000 N 
ATOM      9  C   UNL     1       2.069   1.895   0.495  0.00  0.00    +0.000 C 
ATOM     10  O   UNL     1       1.337   2.654  -0.099  0.00  0.00    +0.000 OA
ATOM     11  H   UNL     1       3.518   3.591  -1.104  0.00  0.00    +0.000 HD
BRANCH   8  12
ATOM     12  S   UNL     1       0.615   1.795   2.831  0.00  0.00    +0.000 S 
ATOM     13  C   UNL     1      -0.018   0.214   3.380  0.00  0.00    +0.000 C 
ATOM     14  O   UNL     1       1.163   2.455   3.998  0.00  0.00    +0.000 OA
ATOM     15  O   UNL     1      -0.456   2.400   2.074  0.00  0.00    +0.000 OA
ENDBRANCH   8  12
ENDBRANCH   1   2
BRANCH   1  16
ATOM     16  C   UNL     1       5.141   4.640  -2.887  0.00  0.00    +0.000 A 
ATOM     17  C   UNL     1       6.456   4.836  -2.434  0.00  0.00    +0.000 A 
ATOM     18  C   UNL     1       6.955   6.131  -2.227  0.00  0.00    +0.000 A 
ATOM     19  C   UNL     1       6.191   7.247  -2.564  0.00  0.00    +0.000 A 
ATOM     20  C   UNL     1       4.908   7.074  -3.060  0.00  0.00    +0.000 A 
ATOM     21  C   UNL     1       4.389   5.788  -3.204  0.00  0.00    +0.000 A 
ENDBRANCH   1  16
BRANCH   1  23
ATOM     22  N   UNL     1       3.695   2.337  -5.123  0.00  0.00    +0.000 N 
ATOM     23  C   UNL     1       3.424   3.133  -4.029  0.00  0.00    +0.000 C 
ATOM     24  O   UNL     1       2.366   3.761  -3.969  0.00  0.00    +0.000 OA
ATOM     25  H   UNL     1       4.497   1.715  -5.110  0.00  0.00    +0.000 HD
BRANCH  22  35
ATOM     26  C   UNL     1       2.973   1.285  -7.371  0.00  0.00    +0.000 C 
ATOM     27  S   UNL     1       4.215  -0.031  -7.112  0.00  0.00    +0.000 S 
ATOM     28  C   UNL     1       3.000  -1.324  -7.704  0.00  0.00    +0.000 C 
ATOM     29  C   UNL     1       3.461  -2.658  -7.113  0.00  0.00    +0.000 C 
ATOM     30  C   UNL     1       3.102  -1.292  -9.241  0.00  0.00    +0.000 C 
ATOM     31  CA  UNL     1       1.647  -0.858  -7.118  0.00  0.00    +0.000 C 
ATOM     32  N   UNL     1       1.682   0.619  -7.126  0.00  0.00    +0.000 N 
ATOM     33  C   UNL     1       1.440   1.332  -5.973  0.00  0.00    +0.000 C 
ATOM     34  O   UNL     1       0.648   1.134  -5.081  0.00  0.00    +0.000 OA
ATOM     35  CA  UNL     1       2.679   2.246  -6.213  0.00  0.00    +0.000 C 
BRANCH  31  36
ATOM     36  C   UNL     1       0.329  -1.384  -7.738  0.00  0.00    +0.000 C 
ATOM     37  OXT UNL     1      -0.775  -0.990  -7.380  0.00  0.00    +0.000 OA
BRANCH  36  38
ATOM     38  O   UNL     1       0.383  -2.335  -8.692  0.00  0.00    +0.000 OA
ATOM     39  H   UNL     1       1.199  -2.830  -8.858  0.00  0.00    +0.000 HD
ENDBRANCH  36  38
ENDBRANCH  31  36
ENDBRANCH  22  35
ENDBRANCH   1  23
TORSDOF 7
