REMARK  Name = Mianserin
REMARK  1 active torsions:
REMARK  status: ('A' for Active; 'I' for Inactive)
REMARK    1  A    between atoms: C_1  and  N_2
REMARK                            x       y       z     vdW  Elec       q    Type
REMARK                         _______ _______ _______ _____ _____    ______ ____
ROOT
ATOM      1  C   UNL     1       1.453  -0.323  -0.243  0.00  0.00    +0.000 C 
ATOM      2  N   UNL     1       3.005  -0.218  -0.234  0.00  0.00    +0.000 NA
ATOM      3  C   UNL     1       3.018   1.190  -0.165  0.00  0.00    +0.000 C 
ATOM      4  C   UNL     1       4.424   1.643   0.070  0.00  0.00    +0.000 C 
ATOM      5  N   UNL     1       4.648   2.350  -1.166  0.00  0.00    +0.000 N 
ATOM      6  C   UNL     1       5.420   1.388  -1.953  0.00  0.00    +0.000 C 
ATOM      7  C   UNL     1       4.228  -0.225  -1.490  0.00  0.00    +0.000 C 
ATOM      8  C   UNL     1       6.899   2.327  -1.604  0.00  0.00    +0.000 A 
ATOM      9  C   UNL     1       8.106   1.867  -1.039  0.00  0.00    +0.000 A 
ATOM     10  C   UNL     1       9.195   2.764  -0.596  0.00  0.00    +0.000 A 
ATOM     11  C   UNL     1       9.186   4.158  -0.661  0.00  0.00    +0.000 A 
ATOM     12  C   UNL     1       8.091   4.696  -1.273  0.00  0.00    +0.000 A 
ATOM     13  C   UNL     1       7.005   3.840  -1.776  0.00  0.00    +0.000 A 
ATOM     14  C   UNL     1       6.013   4.724  -2.502  0.00  0.00    +0.000 C 
ATOM     15  C   UNL     1       4.675   4.742  -1.858  0.00  0.00    +0.000 A 
ATOM     16  C   UNL     1       4.013   6.007  -1.745  0.00  0.00    +0.000 A 
ATOM     17  C   UNL     1       2.765   6.151  -1.138  0.00  0.00    +0.000 A 
ATOM     18  C   UNL     1       2.168   5.030  -0.668  0.00  0.00    +0.000 A 
ATOM     19  C   UNL     1       2.825   3.842  -0.809  0.00  0.00    +0.000 A 
ATOM     20  C   UNL     1       4.110   3.589  -1.329  0.00  0.00    +0.000 A 
ENDROOT
TORSDOF 0
