REMARK  Name = Miconazole
REMARK  6 active torsions:
REMARK  status: ('A' for Active; 'I' for Inactive)
REMARK    1  A    between atoms: C_6  and  C_7
REMARK    2  A    between atoms: C_7  and  O_8
REMARK    3  A    between atoms: O_8  and  C_9
REMARK    4  A    between atoms: C_9  and  C_10
REMARK    5  A    between atoms: C_9  and  C_16
REMARK    6  A    between atoms: C_10  and  N_11
REMARK                            x       y       z     vdW  Elec       q    Type
REMARK                         _______ _______ _______ _____ _____    ______ ____
ROOT
ATOM      1  C   UNL     1       3.514  -4.280   0.012  0.00  0.00    +0.000 C 
ENDROOT
BRANCH   1   2
ATOM      2  C   UNL     1       3.246  -5.800   0.022  0.00  0.00    +0.000 A 
ATOM      3  C   UNL     1       4.282  -6.751  -0.043  0.00  0.00    +0.000 A 
ATOM      4 CL   UNL     1       5.942  -6.295  -0.204  0.00  0.00    +0.000 Cl
ATOM      5  C   UNL     1       4.008  -8.125  -0.009  0.00  0.00    +0.000 A 
ATOM      6  C   UNL     1       2.693  -8.575   0.053  0.00  0.00    +0.000 A 
ATOM      7 CL   UNL     1       2.362 -10.262   0.065  0.00  0.00    +0.000 Cl
ATOM      8  C   UNL     1       1.645  -7.666   0.094  0.00  0.00    +0.000 A 
ATOM      9  C   UNL     1       1.920  -6.296   0.089  0.00  0.00    +0.000 A 
ENDBRANCH   1   2
BRANCH   1  10
ATOM     10  O   UNL     1       2.232  -3.676  -0.299  0.00  0.00    +0.000 OA
BRANCH  10  11
ATOM     11  C   UNL     1       2.308  -2.275  -0.498  0.00  0.00    +0.000 C 
BRANCH  11  17
ATOM     12 CL   UNL     1      -2.796   0.835   0.088  0.00  0.00    +0.000 Cl
ATOM     13  C   UNL     1      -1.324  -0.048   0.025  0.00  0.00    +0.000 A 
ATOM     14  C   UNL     1      -0.122   0.637  -0.075  0.00  0.00    +0.000 A 
ATOM     15  C   UNL     1       1.047  -0.084  -0.300  0.00  0.00    +0.000 A 
ATOM     16 CL   UNL     1       2.478   0.844  -0.574  0.00  0.00    +0.000 Cl
ATOM     17  C   UNL     1       1.034  -1.496  -0.346  0.00  0.00    +0.000 A 
ATOM     18  C   UNL     1      -0.172  -2.163  -0.123  0.00  0.00    +0.000 A 
ATOM     19  C   UNL     1      -1.353  -1.441   0.016  0.00  0.00    +0.000 A 
ENDBRANCH  11  17
ENDBRANCH  10  11
ENDBRANCH   1  10
BRANCH   1  20
ATOM     20  C   UNL     1       4.193  -3.830   1.380  0.00  0.00    +0.000 C 
BRANCH  20  21
ATOM     21  N   UNL     1       4.633  -2.444   1.563  0.00  0.00    +0.000 N 
ATOM     22  C   UNL     1       3.900  -1.375   2.031  0.00  0.00    +0.000 A 
ATOM     23  C   UNL     1       4.649  -0.268   1.673  0.00  0.00    +0.000 A 
ATOM     24  N   UNL     1       5.901  -0.643   1.295  0.00  0.00    +0.000 NA
ATOM     25  C   UNL     1       5.894  -1.970   1.333  0.00  0.00    +0.000 A 
ENDBRANCH  20  21
ENDBRANCH   1  20
TORSDOF 6
