REMARK  Name = Micronomicin
REMARK  16 active torsions:
REMARK  status: ('A' for Active; 'I' for Inactive)
REMARK    1  A    between atoms: C_1  and  N_2
REMARK    2  A    between atoms: N_2  and  C_3
REMARK    3  A    between atoms: C_3  and  C_4
REMARK    4  A    between atoms: C_7  and  N_8
REMARK    5  A    between atoms: C_9  and  O_10
REMARK    6  A    between atoms: O_10  and  C_11
REMARK    7  A    between atoms: C_12  and  N_13
REMARK    8  A    between atoms: C_15  and  N_16
REMARK    9  A    between atoms: C_17  and  O_18
REMARK   10  A    between atoms: O_18  and  C_19
REMARK   11  A    between atoms: C_22  and  C_23
REMARK   12  A    between atoms: C_22  and  O_24
REMARK   13  A    between atoms: C_25  and  N_26
REMARK   14  A    between atoms: N_26  and  C_27
REMARK   15  A    between atoms: C_28  and  O_29
REMARK   16  A    between atoms: C_30  and  O_31
REMARK                            x       y       z     vdW  Elec       q    Type
REMARK                         _______ _______ _______ _____ _____    ______ ____
ROOT
ATOM      1  C   UNL     1      -1.240  -0.213  -1.925  0.00  0.00    +0.000 C 
ATOM      2  C   UNL     1      -0.894  -1.708  -2.459  0.00  0.00    +0.000 C 
ATOM      3  C   UNL     1       0.454  -1.901  -3.244  0.00  0.00    +0.000 C 
ATOM      4  C   UNL     1       0.902  -0.760  -4.171  0.00  0.00    +0.000 C 
ATOM      5  C   UNL     1       0.492   0.711  -3.836  0.00  0.00    +0.000 C 
ATOM      6  C   UNL     1      -0.883   0.859  -3.035  0.00  0.00    +0.000 C 
ENDROOT
BRANCH   2   7
ATOM      7  N   UNL     1      -1.883  -2.295  -3.372  0.00  0.00    +0.000 NA
ATOM      8  H   UNL     1      -1.777  -1.974  -4.322  0.00  0.00    +0.000 HD
ATOM      9  H   UNL     1      -2.829  -2.094  -3.060  0.00  0.00    +0.000 HD
ENDBRANCH   2   7
BRANCH   4  10
ATOM     10  N   UNL     1       0.479  -1.135  -5.524  0.00  0.00    +0.000 NA
ATOM     11  H   UNL     1      -0.528  -1.190  -5.599  0.00  0.00    +0.000 HD
ATOM     12  H   UNL     1       0.812  -2.085  -5.702  0.00  0.00    +0.000 HD
ENDBRANCH   4  10
BRANCH   6  13
ATOM     13  O   UNL     1      -1.942   0.743  -4.036  0.00  0.00    +0.000 OA
ATOM     14  H   UNL     1      -1.736  -0.013  -4.608  0.00  0.00    +0.000 HD
ENDBRANCH   6  13
BRANCH   1  15
ATOM     15  O   UNL     1      -0.926   0.141  -0.460  0.00  0.00    +0.000 OA
BRANCH  15  20
ATOM     16  C   UNL     1       2.610   1.262   0.814  0.00  0.00    +0.000 C 
ATOM     17  C   UNL     1       3.237  -0.337   0.503  0.00  0.00    +0.000 C 
ATOM     18  C   UNL     1       2.612  -1.154  -0.646  0.00  0.00    +0.000 C 
ATOM     19  C   UNL     1       1.154  -0.977  -0.486  0.00  0.00    +0.000 C 
ATOM     20  C   UNL     1       0.503   0.361  -0.190  0.00  0.00    +0.000 C 
ATOM     21  O   UNL     1       1.113   1.080   0.927  0.00  0.00    +0.000 OA
BRANCH  19  22
ATOM     22  N   UNL     1       0.713  -2.193   0.188  0.00  0.00    +0.000 NA
ATOM     23  H   UNL     1       1.166  -2.198   1.100  0.00  0.00    +0.000 HD
ATOM     24  H   UNL     1       1.100  -3.005  -0.305  0.00  0.00    +0.000 HD
ENDBRANCH  19  22
BRANCH  16  25
ATOM     25  C   UNL     1       3.284   2.920   0.215  0.00  0.00    +0.000 C 
BRANCH  25  27
ATOM     26  C   UNL     1       2.760   5.009  -1.388  0.00  0.00    +0.000 C 
ATOM     27  N   UNL     1       2.674   4.336   0.006  0.00  0.00    +0.000 NA
ATOM     28  H   UNL     1       1.674   4.207   0.137  0.00  0.00    +0.000 HD
ENDBRANCH  25  27
ENDBRANCH  16  25
ENDBRANCH  15  20
ENDBRANCH   1  15
BRANCH   5  29
ATOM     29  O   UNL     1       1.521   1.720  -3.625  0.00  0.00    +0.000 OA
BRANCH  29  30
ATOM     30  C   UNL     1       2.918   1.380  -3.409  0.00  0.00    +0.000 C 
ATOM     31  O   UNL     1       3.846   2.397  -3.801  0.00  0.00    +0.000 OA
ATOM     32  C   UNL     1       5.232   2.043  -3.512  0.00  0.00    +0.000 C 
ATOM     33  C   UNL     1       5.678   2.175  -2.036  0.00  0.00    +0.000 C 
ATOM     34  C   UNL     1       5.635   3.632  -1.608  0.00  0.00    +0.000 C 
ATOM     35  C   UNL     1       4.733   1.086  -1.393  0.00  0.00    +0.000 C 
ATOM     36  C   UNL     1       3.069   1.351  -1.959  0.00  0.00    +0.000 C 
BRANCH  35  37
ATOM     37  N   UNL     1       5.502  -0.183  -1.670  0.00  0.00    +0.000 NA
ATOM     38  C   UNL     1       5.189  -1.582  -1.795  0.00  0.00    +0.000 C 
ATOM     39  H   UNL     1       6.490  -0.104  -1.565  0.00  0.00    +0.000 HD
ENDBRANCH  35  37
BRANCH  33  40
ATOM     40  O   UNL     1       7.100   1.827  -1.831  0.00  0.00    +0.000 OA
ATOM     41  H   UNL     1       7.231   1.320  -1.109  0.00  0.00    +0.000 HD
ENDBRANCH  33  40
BRANCH  36  42
ATOM     42  O   UNL     1       2.006   2.217  -1.431  0.00  0.00    +0.000 OA
ATOM     43  H   UNL     1       1.627   2.843  -2.074  0.00  0.00    +0.000 HD
ENDBRANCH  36  42
ENDBRANCH  29  30
ENDBRANCH   5  29
TORSDOF 13
