REMARK  Name = Midazolam
REMARK  2 active torsions:
REMARK  status: ('A' for Active; 'I' for Inactive)
REMARK    1  A    between atoms: C_1  and  C_2
REMARK    2  A    between atoms: C_8  and  C_9
REMARK                            x       y       z     vdW  Elec       q    Type
REMARK                         _______ _______ _______ _____ _____    ______ ____
ROOT
ATOM      1  C   UNL     1       0.958   0.051   0.047  0.00  0.00    +0.000 C 
ATOM      2  C   UNL     1       2.446   0.051   0.114  0.00  0.00    +0.000 A 
ATOM      3  N   UNL     1       3.172   1.147  -0.000  0.00  0.00    +0.000 NA
ATOM      4  C   UNL     1       4.471   0.735  -0.035  0.00  0.00    +0.000 A 
ATOM      5  C   UNL     1       4.554  -0.632   0.061  0.00  0.00    +0.000 A 
ATOM      6  C   UNL     1       5.731  -1.522   0.108  0.00  0.00    +0.000 C 
ATOM      7  N   UNL     1       5.698  -2.425  -1.026  0.00  0.00    +0.000 NA
ATOM      8  C   UNL     1       4.756  -3.303  -1.122  0.00  0.00    +0.000 C 
ATOM      9  C   UNL     1       3.625  -3.497  -0.152  0.00  0.00    +0.000 A 
ATOM     10  C   UNL     1       2.884  -2.435   0.398  0.00  0.00    +0.000 A 
ATOM     11  C   UNL     1       1.781  -2.718   1.220  0.00  0.00    +0.000 A 
ATOM     12  C   UNL     1       1.393  -4.032   1.477  0.00  0.00    +0.000 A 
ATOM     13  C   UNL     1       2.127  -5.078   0.940  0.00  0.00    +0.000 A 
ATOM     14 CL   UNL     1       1.668  -6.698   1.286  0.00  0.00    +0.000 Cl
ATOM     15  C   UNL     1       3.237  -4.822   0.135  0.00  0.00    +0.000 A 
ATOM     16  N   UNL     1       3.256  -1.082   0.184  0.00  0.00    +0.000 N 
ENDROOT
BRANCH   8  17
ATOM     17  C   UNL     1       4.776  -4.189  -2.311  0.00  0.00    +0.000 A 
ATOM     18  C   UNL     1       3.666  -4.224  -3.162  0.00  0.00    +0.000 A 
ATOM     19  C   UNL     1       3.585  -5.211  -4.144  0.00  0.00    +0.000 A 
ATOM     20  C   UNL     1       4.652  -6.091  -4.340  0.00  0.00    +0.000 A 
ATOM     21  C   UNL     1       5.808  -5.974  -3.565  0.00  0.00    +0.000 A 
ATOM     22  C   UNL     1       5.850  -5.050  -2.525  0.00  0.00    +0.000 A 
ATOM     23  F   UNL     1       6.904  -5.064  -1.696  0.00  0.00    +0.000 F 
ENDBRANCH   8  17
TORSDOF 1
