REMARK  Name = Midodrine
REMARK  10 active torsions:
REMARK  status: ('A' for Active; 'I' for Inactive)
REMARK    1  A    between atoms: C_1  and  O_2
REMARK    2  A    between atoms: O_2  and  C_3
REMARK    3  A    between atoms: C_5  and  C_6
REMARK    4  A    between atoms: C_6  and  O_7
REMARK    5  A    between atoms: C_6  and  C_8
REMARK    6  A    between atoms: C_8  and  N_9
REMARK    7  A    between atoms: C_10  and  C_12
REMARK    8  A    between atoms: C_12  and  N_13
REMARK    9  A    between atoms: C_14  and  O_15
REMARK   10  A    between atoms: O_15  and  C_16
REMARK                            x       y       z     vdW  Elec       q    Type
REMARK                         _______ _______ _______ _____ _____    ______ ____
ROOT
ATOM      1  C   UNL     1       6.332  -1.162  -2.589  0.00  0.00    +0.000 C 
ENDROOT
BRANCH   1   4
ATOM      2  C   UNL     1       2.973   0.020  -1.207  0.00  0.00    +0.000 A 
ATOM      3  C   UNL     1       4.145  -0.720  -1.394  0.00  0.00    +0.000 A 
ATOM      4  C   UNL     1       4.926  -0.553  -2.556  0.00  0.00    +0.000 A 
ATOM      5  C   UNL     1       4.418   0.273  -3.586  0.00  0.00    +0.000 A 
ATOM      6  C   UNL     1       3.273   1.031  -3.380  0.00  0.00    +0.000 A 
ATOM      7  C   UNL     1       2.563   0.917  -2.190  0.00  0.00    +0.000 A 
BRANCH   2   9
ATOM      8  C   UNL     1       0.940   0.010  -0.008  0.00  0.00    +0.000 C 
ATOM      9  O   UNL     1       2.361  -0.102   0.011  0.00  0.00    +0.000 OA
ENDBRANCH   2   9
BRANCH   5  10
ATOM     10  O   UNL     1       5.087   0.268  -4.770  0.00  0.00    +0.000 OA
ATOM     11  C   UNL     1       4.686   1.084  -5.852  0.00  0.00    +0.000 C 
ENDBRANCH   5  10
ENDBRANCH   1   4
BRANCH   1  12
ATOM     12  O   UNL     1       6.254  -2.587  -2.501  0.00  0.00    +0.000 OA
ATOM     13  H   UNL     1       5.699  -2.871  -3.249  0.00  0.00    +0.000 HD
ENDBRANCH   1  12
BRANCH   1  14
ATOM     14  C   UNL     1       7.167  -0.778  -3.825  0.00  0.00    +0.000 C 
BRANCH  14  15
ATOM     15  N   UNL     1       8.528  -1.243  -3.884  0.00  0.00    +0.000 N 
ATOM     16  C   UNL     1       9.233  -0.970  -5.045  0.00  0.00    +0.000 C 
ATOM     17  O   UNL     1       8.747  -0.320  -5.977  0.00  0.00    +0.000 OA
ATOM     18  H   UNL     1       8.853  -1.910  -3.197  0.00  0.00    +0.000 HD
BRANCH  16  19
ATOM     19  C   UNL     1      10.636  -1.570  -5.081  0.00  0.00    +0.000 C 
BRANCH  19  20
ATOM     20  N   UNL     1      11.343  -1.173  -6.303  0.00  0.00    +0.000 NA
ATOM     21  H   UNL     1      10.777  -1.446  -7.109  0.00  0.00    +0.000 HD
ATOM     22  H   UNL     1      12.235  -1.650  -6.372  0.00  0.00    +0.000 HD
ENDBRANCH  19  20
ENDBRANCH  16  19
ENDBRANCH  14  15
ENDBRANCH   1  14
TORSDOF 8
