REMARK  Name = Midostaurin
REMARK  6 active torsions:
REMARK  status: ('A' for Active; 'I' for Inactive)
REMARK    1  A    between atoms: C_1  and  O_2
REMARK    2  A    between atoms: O_2  and  C_3
REMARK    3  A    between atoms: C_4  and  N_34
REMARK    4  A    between atoms: C_8  and  C_9
REMARK    5  A    between atoms: N_34  and  C_35
REMARK    6  A    between atoms: C_36  and  C_38
REMARK                            x       y       z     vdW  Elec       q    Type
REMARK                         _______ _______ _______ _____ _____    ______ ____
ROOT
ATOM      1  C   UNL     1       3.066   0.600  -1.118  0.00  0.00    +0.000 C 
ATOM      2  C   UNL     1       3.664   1.863  -0.538  0.00  0.00    +0.000 C 
ATOM      3  C   UNL     1       2.353   2.775  -0.911  0.00  0.00    +0.000 C 
ATOM      4  C   UNL     1       1.503   2.644  -2.728  0.00  0.00    +0.000 C 
ATOM      5  O   UNL     1       0.885   1.664  -2.059  0.00  0.00    +0.000 OA
ATOM      6  C   UNL     1       2.104   0.932  -2.266  0.00  0.00    +0.000 C 
ATOM      7  C   UNL     1       3.428   2.151  -3.106  0.00  0.00    +0.000 C 
ATOM      8  N   UNL     1       1.339  -0.215  -2.698  0.00  0.00    +0.000 N 
ATOM      9  C   UNL     1       0.291  -1.119  -2.160  0.00  0.00    +0.000 A 
ATOM     10  C   UNL     1      -0.030  -2.086  -3.159  0.00  0.00    +0.000 A 
ATOM     11  C   UNL     1      -0.807  -3.190  -2.790  0.00  0.00    +0.000 A 
ATOM     12  C   UNL     1      -1.196  -3.447  -1.484  0.00  0.00    +0.000 A 
ATOM     13  C   UNL     1      -0.974  -2.523  -0.520  0.00  0.00    +0.000 A 
ATOM     14  C   UNL     1      -0.465  -1.308  -0.935  0.00  0.00    +0.000 A 
ATOM     15  C   UNL     1       0.470  -1.612  -4.349  0.00  0.00    +0.000 A 
ATOM     16  C   UNL     1       1.085  -0.449  -3.965  0.00  0.00    +0.000 A 
ATOM     17  C   UNL     1       1.386   0.458  -4.904  0.00  0.00    +0.000 A 
ATOM     18  C   UNL     1       1.353  -0.258  -6.178  0.00  0.00    +0.000 A 
ATOM     19  C   UNL     1       1.720   0.710  -7.045  0.00  0.00    +0.000 A 
ATOM     20  C   UNL     1       2.673   1.625  -6.110  0.00  0.00    +0.000 A 
ATOM     21  C   UNL     1       3.514   2.023  -7.574  0.00  0.00    +0.000 A 
ATOM     22  C   UNL     1       3.107   2.037  -9.158  0.00  0.00    +0.000 A 
ATOM     23  C   UNL     1       1.885   1.628  -9.554  0.00  0.00    +0.000 A 
ATOM     24  C   UNL     1       1.370   0.840  -8.543  0.00  0.00    +0.000 A 
ATOM     25  N   UNL     1       1.753   1.839  -4.623  0.00  0.00    +0.000 N 
ATOM     26  C   UNL     1       0.859  -1.557  -6.628  0.00  0.00    +0.000 A 
ATOM     27  C   UNL     1       0.290  -2.237  -5.564  0.00  0.00    +0.000 A 
ATOM     28  C   UNL     1      -0.324  -3.500  -5.902  0.00  0.00    +0.000 C 
ATOM     29  N   UNL     1       0.214  -3.653  -7.222  0.00  0.00    +0.000 N 
ATOM     30  C   UNL     1       0.680  -2.440  -7.790  0.00  0.00    +0.000 C 
ATOM     31  O   UNL     1       0.808  -2.338  -9.006  0.00  0.00    +0.000 OA
ATOM     32  H   UNL     1       0.183  -4.536  -7.720  0.00  0.00    +0.000 HD
ENDROOT
BRANCH   2  33
ATOM     33  N   UNL     1       4.481   1.446   0.706  0.00  0.00    +0.000 N 
ATOM     34  C   UNL     1       4.587   2.210   1.956  0.00  0.00    +0.000 C 
ATOM     35  C   UNL     1       5.374   0.324   0.465  0.00  0.00    +0.000 C 
ATOM     36  O   UNL     1       5.504  -0.226  -0.631  0.00  0.00    +0.000 OA
BRANCH  35  37
ATOM     37  C   UNL     1       6.275  -0.215   1.506  0.00  0.00    +0.000 A 
ATOM     38  C   UNL     1       5.845  -0.403   2.815  0.00  0.00    +0.000 A 
ATOM     39  C   UNL     1       6.792  -0.495   3.828  0.00  0.00    +0.000 A 
ATOM     40  C   UNL     1       8.130  -0.698   3.508  0.00  0.00    +0.000 A 
ATOM     41  C   UNL     1       8.512  -0.823   2.174  0.00  0.00    +0.000 A 
ATOM     42  C   UNL     1       7.605  -0.498   1.167  0.00  0.00    +0.000 A 
ENDBRANCH  35  37
ENDBRANCH   2  33
BRANCH   1  44
ATOM     43  C   UNL     1       1.379   0.063   0.452  0.00  0.00    +0.000 C 
ATOM     44  O   UNL     1       2.675  -0.163   0.029  0.00  0.00    +0.000 OA
ENDBRANCH   1  44
TORSDOF 3
