REMARK  Name = Mifepristone
REMARK  8 active torsions:
REMARK  status: ('A' for Active; 'I' for Inactive)
REMARK    1  A    between atoms: C_5  and  O_6
REMARK    2  A    between atoms: C_5  and  C_7
REMARK    3  A    between atoms: C_8  and  C_9
REMARK    4  A    between atoms: C_10  and  C_11
REMARK    5  A    between atoms: C_13  and  C_14
REMARK    6  A    between atoms: C_17  and  N_20
REMARK    7  A    between atoms: N_20  and  C_21
REMARK    8  A    between atoms: N_20  and  C_22
REMARK                            x       y       z     vdW  Elec       q    Type
REMARK                         _______ _______ _______ _____ _____    ______ ____
ROOT
ATOM      1  C   UNL     1       1.600   0.097  -0.061  0.00  0.00    +0.000 C 
ATOM      2  C   UNL     1       2.008   0.365  -1.407  0.00  0.00    +0.000 C 
ATOM      3  C   UNL     1       3.003  -0.192  -0.450  0.00  0.00    +0.000 C 
ATOM      4  C   UNL     1       2.248  -1.153   1.291  0.00  0.00    +0.000 C 
ATOM      5  C   UNL     1       2.465  -1.564  -0.031  0.00  0.00    +0.000 C 
ATOM      6  C   UNL     1       1.837  -2.684  -0.730  0.00  0.00    +0.000 C 
ATOM      7  C   UNL     1       4.296  -1.652   0.407  0.00  0.00    +0.000 C 
ATOM      8  C   UNL     1       4.681  -0.371   1.498  0.00  0.00    +0.000 C 
ATOM      9  C   UNL     1       4.064   1.151   1.297  0.00  0.00    +0.000 C 
ATOM     10  C   UNL     1       4.960   2.136   1.050  0.00  0.00    +0.000 C 
ATOM     11  C   UNL     1       6.384   1.687   1.114  0.00  0.00    +0.000 C 
ATOM     12  C   UNL     1       7.403   2.743   0.908  0.00  0.00    +0.000 C 
ATOM     13  C   UNL     1       7.151   4.158   0.631  0.00  0.00    +0.000 C 
ATOM     14  O   UNL     1       8.146   4.876   0.541  0.00  0.00    +0.000 OA
ATOM     15  C   UNL     1       5.650   4.478   0.487  0.00  0.00    +0.000 C 
ATOM     16  C   UNL     1       4.667   3.519   0.659  0.00  0.00    +0.000 C 
ATOM     17  C   UNL     1       3.158   3.778   0.477  0.00  0.00    +0.000 C 
ATOM     18  C   UNL     1       2.049   2.694   0.633  0.00  0.00    +0.000 C 
ATOM     19  C   UNL     1       2.430   1.303   1.090  0.00  0.00    +0.000 C 
ENDROOT
BRANCH   8  20
ATOM     20  C   UNL     1       4.496  -0.698   2.954  0.00  0.00    +0.000 A 
ATOM     21  C   UNL     1       4.960  -1.921   3.390  0.00  0.00    +0.000 A 
ATOM     22  C   UNL     1       4.364  -2.466   4.508  0.00  0.00    +0.000 A 
ATOM     23  C   UNL     1       3.547  -1.724   5.377  0.00  0.00    +0.000 A 
ATOM     24  C   UNL     1       3.184  -0.449   4.951  0.00  0.00    +0.000 A 
ATOM     25  C   UNL     1       3.678   0.073   3.782  0.00  0.00    +0.000 A 
BRANCH  23  26
ATOM     26  N   UNL     1       3.125  -2.233   6.587  0.00  0.00    +0.000 N 
ATOM     27  C   UNL     1       3.625  -3.510   7.077  0.00  0.00    +0.000 C 
ATOM     28  C   UNL     1       2.459  -1.387   7.572  0.00  0.00    +0.000 C 
ENDBRANCH  23  26
ENDBRANCH   8  20
BRANCH   4  29
ATOM     29  C   UNL     1       0.555  -1.526   1.943  0.00  0.00    +0.000 C 
ATOM     30  C   UNL     1      -0.748  -1.509   1.995  0.00  0.00    +0.000 C 
ATOM     31  C   UNL     1      -2.266  -1.488   2.057  0.00  0.00    +0.000 C 
ENDBRANCH   4  29
BRANCH   4  32
ATOM     32  O   UNL     1       2.589  -2.503   1.730  0.00  0.00    +0.000 OA
ATOM     33  H   UNL     1       3.396  -2.606   2.227  0.00  0.00    +0.000 HD
ENDBRANCH   4  32
TORSDOF 4
