REMARK  Name = Migalastat
REMARK  5 active torsions:
REMARK  status: ('A' for Active; 'I' for Inactive)
REMARK    1  A    between atoms: O_1  and  C_2
REMARK    2  A    between atoms: C_2  and  C_3
REMARK    3  A    between atoms: C_6  and  O_7
REMARK    4  A    between atoms: C_8  and  O_9
REMARK    5  A    between atoms: C_10  and  O_11
REMARK                            x       y       z     vdW  Elec       q    Type
REMARK                         _______ _______ _______ _____ _____    ______ ____
ROOT
ATOM      1  C   UNK A   1       2.852  -0.817  -1.296  0.00  0.00    +0.000 C 
ATOM      2  N   UNK A   1       1.734  -1.637  -1.827  0.00  0.00    +0.000 NA
ATOM      3  C   UNK A   0       1.218  -2.616  -0.880  0.00  0.00    +0.000 C 
ATOM      4  C   UNK A   1       2.295  -3.541  -0.309  0.00  0.00    +0.000 C 
ATOM      5  C   UNK A   1       3.416  -2.685   0.314  0.00  0.00    +0.000 C 
ATOM      6  C   UNK A   1       3.998  -1.704  -0.739  0.00  0.00    +0.000 C 
ATOM      7  H   UNK A   1       2.028  -2.105  -2.684  0.00  0.00    +0.000 HD
ENDROOT
BRANCH   4   8
ATOM      8  O   UNK A   1       1.695  -4.432   0.635  0.00  0.00    +0.000 OA
ATOM      9  H   UNK A   1       1.532  -3.941   1.454  0.00  0.00    +0.000 HD
ENDBRANCH   4   8
BRANCH   5  10
ATOM     10  O   UNK A   1       4.441  -3.532   0.842  0.00  0.00    +0.000 OA
ATOM     11  H   UNK A   1       4.885  -3.944   0.078  0.00  0.00    +0.000 HD
ENDBRANCH   5  10
BRANCH   6  12
ATOM     12  O   UNK A   1       4.646  -2.464  -1.776  0.00  0.00    +0.000 OA
ATOM     13  H   UNK A   1       3.970  -2.904  -2.304  0.00  0.00    +0.000 HD
ENDBRANCH   6  12
BRANCH   1  14
ATOM     14  C   UNK A   1       3.207   0.130  -2.465  0.00  0.00    +0.000 C 
BRANCH  14  15
ATOM     15  O   UNK A   1       4.351   0.942  -2.290  0.00  0.00    +0.000 OA
ATOM     16  H   UNK A   1       4.441   1.435  -3.129  0.00  0.00    +0.000 HD
ENDBRANCH  14  15
ENDBRANCH   1  14
TORSDOF 5
