REMARK  Name = Miglustat
REMARK  9 active torsions:
REMARK  status: ('A' for Active; 'I' for Inactive)
REMARK    1  A    between atoms: C_1  and  C_2
REMARK    2  A    between atoms: C_2  and  C_3
REMARK    3  A    between atoms: C_3  and  C_4
REMARK    4  A    between atoms: C_4  and  N_5
REMARK    5  A    between atoms: C_7  and  O_8
REMARK    6  A    between atoms: C_9  and  O_10
REMARK    7  A    between atoms: C_11  and  O_12
REMARK    8  A    between atoms: C_13  and  C_14
REMARK    9  A    between atoms: C_14  and  O_15
REMARK                            x       y       z     vdW  Elec       q    Type
REMARK                         _______ _______ _______ _____ _____    ______ ____
ROOT
ATOM      1  N   UNL     1       4.945  -1.895   1.938  0.00  0.00    +0.000 NA
ATOM      2  C   UNL     1       6.390  -1.778   2.237  0.00  0.00    +0.000 C 
ATOM      3  C   UNL     1       6.795  -2.667   3.420  0.00  0.00    +0.000 C 
ATOM      4  C   UNL     1       6.508  -4.129   3.072  0.00  0.00    +0.000 C 
ATOM      5  C   UNL     1       5.037  -4.292   2.682  0.00  0.00    +0.000 C 
ATOM      6  C   UNL     1       4.597  -3.308   1.563  0.00  0.00    +0.000 C 
ENDROOT
BRANCH   3   7
ATOM      7  O   UNL     1       8.172  -2.458   3.745  0.00  0.00    +0.000 OA
ATOM      8  H   UNL     1       8.719  -2.934   3.099  0.00  0.00    +0.000 HD
ENDBRANCH   3   7
BRANCH   4   9
ATOM      9  O   UNL     1       6.826  -4.985   4.178  0.00  0.00    +0.000 OA
ATOM     10  H   UNL     1       6.190  -4.797   4.890  0.00  0.00    +0.000 HD
ENDBRANCH   4   9
BRANCH   5  11
ATOM     11  O   UNL     1       4.802  -5.653   2.281  0.00  0.00    +0.000 OA
ATOM     12  H   UNL     1       5.359  -5.843   1.506  0.00  0.00    +0.000 HD
ENDBRANCH   5  11
BRANCH   1  13
ATOM     13  C   UNL     1       4.569  -0.866   0.936  0.00  0.00    +0.000 C 
BRANCH  13  14
ATOM     14  C   UNL     1       3.078  -0.531   0.995  0.00  0.00    +0.000 C 
BRANCH  14  16
ATOM     15  C   UNL     1       1.028   0.271  -0.126  0.00  0.00    +0.000 C 
ATOM     16  C   UNL     1       2.553   0.376  -0.110  0.00  0.00    +0.000 C 
ENDBRANCH  14  16
ENDBRANCH  13  14
ENDBRANCH   1  13
BRANCH   6  17
ATOM     17  C   UNL     1       3.092  -3.629   1.327  0.00  0.00    +0.000 C 
BRANCH  17  18
ATOM     18  O   UNL     1       2.760  -3.454  -0.050  0.00  0.00    +0.000 OA
ATOM     19  H   UNL     1       2.090  -4.128  -0.267  0.00  0.00    +0.000 HD
ENDBRANCH  17  18
ENDBRANCH   6  17
TORSDOF 8
