REMARK  Name = Miglitol
REMARK  8 active torsions:
REMARK  status: ('A' for Active; 'I' for Inactive)
REMARK    1  A    between atoms: O_1  and  C_2
REMARK    2  A    between atoms: C_2  and  C_3
REMARK    3  A    between atoms: C_3  and  N_4
REMARK    4  A    between atoms: C_6  and  O_7
REMARK    5  A    between atoms: C_8  and  O_9
REMARK    6  A    between atoms: C_10  and  O_11
REMARK    7  A    between atoms: C_12  and  C_13
REMARK    8  A    between atoms: C_13  and  O_14
REMARK                            x       y       z     vdW  Elec       q    Type
REMARK                         _______ _______ _______ _____ _____    ______ ____
ROOT
ATOM      1  N   UNL     1       4.222   1.025  -0.889  0.00  0.00    +0.000 NA
ATOM      2  C   UNL     1       4.778   1.996  -1.866  0.00  0.00    +0.000 C 
ATOM      3  C   UNL     1       6.302   2.119  -1.795  0.00  0.00    +0.000 C 
ATOM      4  C   UNL     1       6.913   0.759  -2.133  0.00  0.00    +0.000 C 
ATOM      5  C   UNL     1       6.373  -0.297  -1.164  0.00  0.00    +0.000 C 
ATOM      6  C   UNL     1       4.813  -0.342  -1.074  0.00  0.00    +0.000 C 
ENDROOT
BRANCH   3   7
ATOM      7  O   UNL     1       6.756   3.140  -2.693  0.00  0.00    +0.000 OA
ATOM      8  H   UNL     1       6.608   2.850  -3.601  0.00  0.00    +0.000 HD
ENDBRANCH   3   7
BRANCH   4   9
ATOM      9  O   UNL     1       8.344   0.809  -2.060  0.00  0.00    +0.000 OA
ATOM     10  H   UNL     1       8.588   1.001  -1.138  0.00  0.00    +0.000 HD
ENDBRANCH   4   9
BRANCH   5  11
ATOM     11  O   UNL     1       6.875  -1.593  -1.545  0.00  0.00    +0.000 OA
ATOM     12  H   UNL     1       6.645  -1.756  -2.471  0.00  0.00    +0.000 HD
ENDBRANCH   5  11
BRANCH   1  13
ATOM     13  C   UNL     1       2.739   1.123  -0.998  0.00  0.00    +0.000 C 
BRANCH  13  14
ATOM     14  C   UNL     1       1.992   0.173  -0.080  0.00  0.00    +0.000 C 
BRANCH  14  15
ATOM     15  O   UNL     1       0.582   0.288  -0.065  0.00  0.00    +0.000 OA
ATOM     16  H   UNL     1       0.299  -0.410   0.559  0.00  0.00    +0.000 HD
ENDBRANCH  14  15
ENDBRANCH  13  14
ENDBRANCH   1  13
BRANCH   6  17
ATOM     17  C   UNL     1       4.543  -1.544  -0.064  0.00  0.00    +0.000 C 
BRANCH  17  18
ATOM     18  O   UNL     1       3.817  -1.276   1.126  0.00  0.00    +0.000 OA
ATOM     19  H   UNL     1       3.051  -1.879   1.137  0.00  0.00    +0.000 HD
ENDBRANCH  17  18
ENDBRANCH   6  17
TORSDOF 8
