REMARK  Name = Milnacipran
REMARK  8 active torsions:
REMARK  status: ('A' for Active; 'I' for Inactive)
REMARK    1  A    between atoms: C_1  and  C_2
REMARK    2  A    between atoms: C_2  and  N_3
REMARK    3  A    between atoms: N_3  and  C_4
REMARK    4  A    between atoms: C_4  and  C_5
REMARK    5  A    between atoms: C_6  and  C_8
REMARK    6  A    between atoms: C_8  and  C_13
REMARK    7  A    between atoms: C_10  and  C_11
REMARK    8  A    between atoms: C_11  and  N_12
REMARK                            x       y       z     vdW  Elec       q    Type
REMARK                         _______ _______ _______ _____ _____    ______ ____
ROOT
ATOM      1  C   UNL     1       4.852   2.988   0.839  0.00  0.00    +0.000 C 
ATOM      2  C   UNL     1       5.824   3.592  -0.188  0.00  0.00    +0.000 C 
ATOM      3  C   UNL     1       4.719   4.443   0.326  0.00  0.00    +0.000 C 
ENDROOT
BRANCH   1   4
ATOM      4  C   UNL     1       4.977   2.839   2.363  0.00  0.00    +0.000 A 
ATOM      5  C   UNL     1       5.972   2.070   2.968  0.00  0.00    +0.000 A 
ATOM      6  C   UNL     1       5.732   1.456   4.206  0.00  0.00    +0.000 A 
ATOM      7  C   UNL     1       4.514   1.625   4.870  0.00  0.00    +0.000 A 
ATOM      8  C   UNL     1       3.554   2.458   4.328  0.00  0.00    +0.000 A 
ATOM      9  C   UNL     1       3.841   3.134   3.148  0.00  0.00    +0.000 A 
ENDBRANCH   1   4
BRANCH   1  11
ATOM     10  N   UNL     1       2.894   1.457   0.203  0.00  0.00    +0.000 N 
ATOM     11  C   UNL     1       4.293   1.679   0.263  0.00  0.00    +0.000 C 
ATOM     12  O   UNL     1       5.100   0.804  -0.016  0.00  0.00    +0.000 OA
BRANCH  10  14
ATOM     13  C   UNL     1       1.070  -0.338  -0.077  0.00  0.00    +0.000 C 
ATOM     14  C   UNL     1       2.531   0.045  -0.013  0.00  0.00    +0.000 C 
ENDBRANCH  10  14
BRANCH  10  15
ATOM     15  C   UNL     1       1.961   2.529   0.545  0.00  0.00    +0.000 C 
ATOM     16  C   UNL     1       0.464   2.352   0.540  0.00  0.00    +0.000 C 
ENDBRANCH  10  15
ENDBRANCH   1  11
BRANCH   3  17
ATOM     17  C   UNL     1       5.123   5.646   1.142  0.00  0.00    +0.000 C 
BRANCH  17  18
ATOM     18  N   UNL     1       3.919   6.337   1.588  0.00  0.00    +0.000 NA
ATOM     19  H   UNL     1       3.434   6.719   0.778  0.00  0.00    +0.000 HD
ATOM     20  H   UNL     1       4.195   7.145   2.147  0.00  0.00    +0.000 HD
ENDBRANCH  17  18
ENDBRANCH   3  17
TORSDOF 6
