REMARK  Name = Milrinone
REMARK  3 active torsions:
REMARK  status: ('A' for Active; 'I' for Inactive)
REMARK    1  A    between atoms: C_1  and  C_2
REMARK    2  A    between atoms: C_3  and  C_11
REMARK    3  A    between atoms: C_5  and  C_6
REMARK                            x       y       z     vdW  Elec       q    Type
REMARK                         _______ _______ _______ _____ _____    ______ ____
ROOT
ATOM      1  C   UNL     1       3.469   0.021  -0.082  0.00  0.00    +0.000 C 
ATOM      2  C   UNL     1       1.991  -0.244  -0.007  0.00  0.00    +0.000 A 
ATOM      3  C   UNL     1       1.399  -1.462   0.071  0.00  0.00    +0.000 A 
ATOM      4  C   UNL     1      -0.064  -1.510   0.046  0.00  0.00    +0.000 A 
ATOM      5  C   UNL     1      -0.827  -0.403   0.013  0.00  0.00    +0.000 A 
ATOM      6  C   UNL     1      -0.159   0.923   0.006  0.00  0.00    +0.000 A 
ATOM      7  O   UNL     1      -0.777   1.981   0.025  0.00  0.00    +0.000 OA
ATOM      8  N   UNL     1       1.212   0.897  -0.033  0.00  0.00    +0.000 N 
ATOM      9  H   UNL     1       1.654   1.810  -0.059  0.00  0.00    +0.000 HD
ENDROOT
BRANCH   3  10
ATOM     10  C   UNL     1       2.203  -2.707   0.172  0.00  0.00    +0.000 A 
ATOM     11  C   UNL     1       3.047  -2.928   1.266  0.00  0.00    +0.000 A 
ATOM     12  C   UNL     1       3.788  -4.098   1.313  0.00  0.00    +0.000 A 
ATOM     13  N   UNL     1       3.740  -5.051   0.361  0.00  0.00    +0.000 NA
ATOM     14  C   UNL     1       2.911  -4.828  -0.681  0.00  0.00    +0.000 A 
ATOM     15  C   UNL     1       2.128  -3.690  -0.817  0.00  0.00    +0.000 A 
ENDBRANCH   3  10
BRANCH   5  16
ATOM     16  C   UNL     1      -2.244  -0.462  -0.018  0.00  0.00    +0.000 C 
ATOM     17  N   UNL     1      -3.399  -0.562  -0.044  0.00  0.00    +0.000 NA
ENDBRANCH   5  16
TORSDOF 2
