REMARK  Name = Miltefosine
REMARK  24 active torsions:
REMARK  status: ('A' for Active; 'I' for Inactive)
REMARK    1  A    between atoms: C_1  and  C_2
REMARK    2  A    between atoms: C_2  and  C_3
REMARK    3  A    between atoms: C_3  and  C_4
REMARK    4  A    between atoms: C_4  and  C_5
REMARK    5  A    between atoms: C_5  and  C_6
REMARK    6  A    between atoms: C_6  and  C_7
REMARK    7  A    between atoms: C_7  and  C_8
REMARK    8  A    between atoms: C_8  and  C_9
REMARK    9  A    between atoms: C_9  and  C_10
REMARK   10  A    between atoms: C_10  and  C_11
REMARK   11  A    between atoms: C_11  and  C_12
REMARK   12  A    between atoms: C_12  and  C_13
REMARK   13  A    between atoms: C_13  and  C_14
REMARK   14  A    between atoms: C_14  and  C_15
REMARK   15  A    between atoms: C_15  and  C_16
REMARK   16  A    between atoms: C_16  and  O_17
REMARK   17  A    between atoms: O_17  and  P_18
REMARK   18  A    between atoms: P_18  and  O_21
REMARK   19  A    between atoms: O_21  and  C_22
REMARK   20  A    between atoms: C_22  and  C_23
REMARK   21  A    between atoms: C_23  and  N_24
REMARK   22  A    between atoms: N_24  and  C_25
REMARK   23  A    between atoms: N_24  and  C_26
REMARK   24  A    between atoms: N_24  and  C_27
REMARK                            x       y       z     vdW  Elec       q    Type
REMARK                         _______ _______ _______ _____ _____    ______ ____
ROOT
ATOM      1  C   UNL     1      14.577   7.694   4.086  0.00  0.00    +0.000 C 
ENDROOT
BRANCH   1   2
ATOM      2  C   UNL     1      15.069   8.977   4.740  0.00  0.00    +0.000 C 
BRANCH   2   3
ATOM      3  C   UNL     1      16.576   8.951   4.730  0.00  0.00    +0.000 C 
BRANCH   3   4
ATOM      4  O   UNL     1      17.109  10.091   5.391  0.00  0.00    +0.000 OA
BRANCH   4   5
ATOM      5  P   UNL     1      18.839  10.091   5.391  0.00  0.00    +0.000 P 
ATOM      6  O   UNL     1      18.919   8.572   5.604  0.00  0.00    +0.000 OA
ATOM      7  O   UNL     1      18.868  10.742   4.012  0.00  0.00    +0.000 OA
BRANCH   5   8
ATOM      8  O   UNL     1      20.569  10.091   5.391  0.00  0.00    +0.000 OA
BRANCH   8   9
ATOM      9  C   UNL     1      21.028   9.771   6.676  0.00  0.00    +0.000 C 
BRANCH   9  10
ATOM     10  C   UNL     1      22.538   9.743   6.687  0.00  0.00    +0.000 C 
BRANCH  10  11
ATOM     11  N   UNL     1      23.084   9.358   8.087  0.00  0.00    +0.000 N 
ATOM     12  C   UNL     1      22.618  10.365   9.127  0.00  0.00    +0.000 C 
ATOM     13  C   UNL     1      22.614   7.953   8.460  0.00  0.00    +0.000 C 
ATOM     14  C   UNL     1      24.598   9.370   8.020  0.00  0.00    +0.000 C 
ENDBRANCH  10  11
ENDBRANCH   9  10
ENDBRANCH   8   9
ENDBRANCH   5   8
ENDBRANCH   4   5
ENDBRANCH   3   4
ENDBRANCH   2   3
ENDBRANCH   1   2
BRANCH   1  15
ATOM     15  C   UNL     1      13.064   7.660   4.085  0.00  0.00    +0.000 C 
BRANCH  15  16
ATOM     16  C   UNL     1      12.576   6.388   3.415  0.00  0.00    +0.000 C 
BRANCH  16  17
ATOM     17  C   UNL     1      11.059   6.376   3.411  0.00  0.00    +0.000 C 
BRANCH  17  18
ATOM     18  C   UNL     1      10.553   5.114   2.738  0.00  0.00    +0.000 C 
BRANCH  18  19
ATOM     19  C   UNL     1       9.035   5.112   2.736  0.00  0.00    +0.000 C 
BRANCH  19  20
ATOM     20  C   UNL     1       8.525   3.850   2.064  0.00  0.00    +0.000 C 
BRANCH  20  21
ATOM     21  C   UNL     1       7.006   3.846   2.062  0.00  0.00    +0.000 C 
BRANCH  21  22
ATOM     22  C   UNL     1       6.494   2.583   1.388  0.00  0.00    +0.000 C 
BRANCH  22  23
ATOM     23  C   UNL     1       4.974   2.576   1.384  0.00  0.00    +0.000 C 
BRANCH  23  24
ATOM     24  C   UNL     1       4.459   1.312   0.711  0.00  0.00    +0.000 C 
BRANCH  24  25
ATOM     25  C   UNL     1       2.937   1.303   0.706  0.00  0.00    +0.000 C 
BRANCH  25  27
ATOM     26  C   UNL     1       0.892   0.033   0.029  0.00  0.00    +0.000 C 
ATOM     27  C   UNL     1       2.409   0.041   0.033  0.00  0.00    +0.000 C 
ENDBRANCH  25  27
ENDBRANCH  24  25
ENDBRANCH  23  24
ENDBRANCH  22  23
ENDBRANCH  21  22
ENDBRANCH  20  21
ENDBRANCH  19  20
ENDBRANCH  18  19
ENDBRANCH  17  18
ENDBRANCH  16  17
ENDBRANCH  15  16
ENDBRANCH   1  15
TORSDOF 20
