REMARK  Name = Minaprine
REMARK  5 active torsions:
REMARK  status: ('A' for Active; 'I' for Inactive)
REMARK    1  A    between atoms: C_1  and  C_2
REMARK    2  A    between atoms: C_4  and  C_17
REMARK    3  A    between atoms: N_8  and  C_9
REMARK    4  A    between atoms: C_9  and  C_10
REMARK    5  A    between atoms: C_10  and  N_11
REMARK                            x       y       z     vdW  Elec       q    Type
REMARK                         _______ _______ _______ _____ _____    ______ ____
ROOT
ATOM      1  C   UNL     1       0.912   0.308  -0.048  0.00  0.00    +0.000 C 
ATOM      2  C   UNL     1       2.402   0.127  -0.055  0.00  0.00    +0.000 A 
ATOM      3  C   UNL     1       3.137   1.319  -0.065  0.00  0.00    +0.000 A 
ATOM      4  C   UNL     1       4.513   1.295  -0.088  0.00  0.00    +0.000 A 
ATOM      5  N   UNL     1       5.163   0.120  -0.107  0.00  0.00    +0.000 NA
ATOM      6  N   UNL     1       4.439  -1.077  -0.083  0.00  0.00    +0.000 NA
ATOM      7  C   UNL     1       3.087  -1.089  -0.057  0.00  0.00    +0.000 A 
ATOM      8  N   UNL     1       2.494  -2.341  -0.037  0.00  0.00    +0.000 N 
ATOM      9  H   UNL     1       3.127  -3.127  -0.055  0.00  0.00    +0.000 HD
ENDROOT
BRANCH   4  10
ATOM     10  C   UNL     1       5.281   2.541  -0.067  0.00  0.00    +0.000 A 
ATOM     11  C   UNL     1       6.209   2.843  -1.072  0.00  0.00    +0.000 A 
ATOM     12  C   UNL     1       6.983   4.004  -0.998  0.00  0.00    +0.000 A 
ATOM     13  C   UNL     1       6.779   4.919   0.034  0.00  0.00    +0.000 A 
ATOM     14  C   UNL     1       5.783   4.690   0.978  0.00  0.00    +0.000 A 
ATOM     15  C   UNL     1       5.063   3.496   0.945  0.00  0.00    +0.000 A 
ENDBRANCH   4  10
BRANCH   8  16
ATOM     16  C   UNL     1       1.064  -2.521  -0.043  0.00  0.00    +0.000 C 
BRANCH  16  17
ATOM     17  C   UNL     1       0.594  -3.956  -0.016  0.00  0.00    +0.000 C 
BRANCH  17  18
ATOM     18  N   UNL     1      -0.891  -3.954  -0.062  0.00  0.00    +0.000 NA
ATOM     19  C   UNL     1      -1.424  -5.120   0.666  0.00  0.00    +0.000 C 
ATOM     20  C   UNL     1      -1.028  -6.432  -0.022  0.00  0.00    +0.000 C 
ATOM     21  O   UNL     1      -1.518  -6.476  -1.371  0.00  0.00    +0.000 OA
ATOM     22  C   UNL     1      -1.041  -5.360  -2.138  0.00  0.00    +0.000 C 
ATOM     23  C   UNL     1      -1.395  -4.026  -1.457  0.00  0.00    +0.000 C 
ENDBRANCH  17  18
ENDBRANCH  16  17
ENDBRANCH   8  16
TORSDOF 4
