REMARK  Name = Minocycline
REMARK  11 active torsions:
REMARK  status: ('A' for Active; 'I' for Inactive)
REMARK    1  A    between atoms: C_6  and  O_7
REMARK    2  A    between atoms: C_10  and  N_11
REMARK    3  A    between atoms: N_11  and  C_12
REMARK    4  A    between atoms: N_11  and  C_13
REMARK    5  A    between atoms: C_17  and  O_18
REMARK    6  A    between atoms: C_19  and  O_20
REMARK    7  A    between atoms: C_23  and  C_24
REMARK    8  A    between atoms: C_27  and  O_28
REMARK    9  A    between atoms: C_29  and  N_30
REMARK   10  A    between atoms: N_30  and  C_31
REMARK   11  A    between atoms: N_30  and  C_32
REMARK                            x       y       z     vdW  Elec       q    Type
REMARK                         _______ _______ _______ _____ _____    ______ ____
ROOT
ATOM      1  C   UNL     1       2.221   0.126  -0.207  0.00  0.00    +0.000 C 
ATOM      2  C   UNL     1       2.556  -0.586   1.049  0.00  0.00    +0.000 C 
ATOM      3  C   UNL     1       2.375  -2.041   1.149  0.00  0.00    +0.000 A 
ATOM      4  C   UNL     1       2.472  -2.784  -0.052  0.00  0.00    +0.000 A 
ATOM      5  C   UNL     1       2.359  -4.166  -0.008  0.00  0.00    +0.000 A 
ATOM      6  C   UNL     1       2.143  -4.779   1.212  0.00  0.00    +0.000 A 
ATOM      7  C   UNL     1       2.057  -4.016   2.394  0.00  0.00    +0.000 A 
ATOM      8  C   UNL     1       2.189  -2.614   2.433  0.00  0.00    +0.000 A 
ATOM      9  C   UNL     1       2.733  -2.095  -1.348  0.00  0.00    +0.000 C 
ATOM     10  O   UNL     1       2.993  -2.755  -2.355  0.00  0.00    +0.000 OA
ATOM     11  C   UNL     1       2.696  -0.603  -1.403  0.00  0.00    +0.000 C 
ATOM     12  C   UNL     1       3.061   0.077  -2.506  0.00  0.00    +0.000 C 
ATOM     13  C   UNL     1       2.999   1.598  -2.607  0.00  0.00    +0.000 C 
ATOM     14  C   UNL     1       4.309   2.225  -3.041  0.00  0.00    +0.000 C 
ATOM     15  O   UNL     1       5.386   1.631  -2.889  0.00  0.00    +0.000 OA
ATOM     16  C   UNL     1       4.329   3.704  -3.328  0.00  0.00    +0.000 C 
ATOM     17  C   UNL     1       4.436   4.175  -2.084  0.00  0.00    +0.000 C 
ATOM     18  C   UNL     1       3.069   3.846  -1.119  0.00  0.00    +0.000 C 
ATOM     19  C   UNL     1       2.670   2.310  -1.274  0.00  0.00    +0.000 C 
ATOM     20  C   UNL     1       2.868   1.516  -0.017  0.00  0.00    +0.000 C 
ENDROOT
BRANCH  16  21
ATOM     21  C   UNL     1       3.243   4.663  -3.740  0.00  0.00    +0.000 C 
ATOM     22  N   UNL     1       3.485   6.025  -3.561  0.00  0.00    +0.000 N 
ATOM     23  O   UNL     1       2.118   4.301  -4.097  0.00  0.00    +0.000 OA
ATOM     24  H   UNL     1       4.301   6.337  -3.034  0.00  0.00    +0.000 HD
ATOM     25  H   UNL     1       2.670   6.570  -3.303  0.00  0.00    +0.000 HD
ENDBRANCH  16  21
BRANCH   8  26
ATOM     26  N   UNL     1       2.166  -1.886   3.629  0.00  0.00    +0.000 N 
ATOM     27  C   UNL     1       2.321  -0.429   3.856  0.00  0.00    +0.000 C 
ATOM     28  C   UNL     1       1.851  -2.533   4.906  0.00  0.00    +0.000 C 
ENDBRANCH   8  26
BRANCH  18  29
ATOM     29  N   UNL     1       1.680   4.475  -1.048  0.00  0.00    +0.000 NA
ATOM     30  C   UNL     1       0.445   3.993  -1.751  0.00  0.00    +0.000 C 
ATOM     31  C   UNL     1       1.531   5.885  -0.808  0.00  0.00    +0.000 C 
ENDBRANCH  18  29
BRANCH   5  32
ATOM     32  O   UNL     1       2.443  -4.971  -1.109  0.00  0.00    +0.000 OA
ATOM     33  H   UNL     1       2.643  -4.403  -1.886  0.00  0.00    +0.000 HD
ENDBRANCH   5  32
BRANCH  12  34
ATOM     34  O   UNL     1       3.436  -0.562  -3.678  0.00  0.00    +0.000 OA
ATOM     35  H   UNL     1       3.469  -1.528  -3.489  0.00  0.00    +0.000 HD
ENDBRANCH  12  34
BRANCH  13  36
ATOM     36  O   UNL     1       1.989   1.816  -3.582  0.00  0.00    +0.000 OA
ATOM     37  H   UNL     1       2.310   1.385  -4.398  0.00  0.00    +0.000 HD
ENDBRANCH  13  36
BRANCH  17  38
ATOM     38  O   UNL     1       5.346   5.291  -1.985  0.00  0.00    +0.000 OA
ATOM     39  H   UNL     1       5.944   5.272  -2.795  0.00  0.00    +0.000 HD
ENDBRANCH  17  38
TORSDOF 7
