REMARK  Name = Minoxidil
REMARK  1 active torsions:
REMARK  status: ('A' for Active; 'I' for Inactive)
REMARK    1  A    between atoms: N_1  and  C_2
REMARK                            x       y       z     vdW  Elec       q    Type
REMARK                         _______ _______ _______ _____ _____    ______ ____
ROOT
ATOM      1  C   UNL     1       2.544   0.089   0.031  0.00  0.00    +0.000 A 
ATOM      2  C   UNL     1       3.255   1.289   0.055  0.00  0.00    +0.000 A 
ATOM      3  C   UNL     1       4.643   1.264   0.040  0.00  0.00    +0.000 A 
ATOM      4  N   UNL     1       5.310   0.085  -0.001  0.00  0.00    +0.000 NA
ATOM      5  C   UNL     1       4.640  -1.099  -0.001  0.00  0.00    +0.000 A 
ATOM      6  N   UNL     1       5.346  -2.292  -0.040  0.00  0.00    +0.000 N 
ATOM      7  N   UNL     1       3.240  -1.130   0.013  0.00  0.00    +0.000 N 
ATOM      8  O   UNL     1       2.591  -2.252  -0.002  0.00  0.00    +0.000 OA
ATOM      9  N   UNL     1       5.406   2.407  -0.024  0.00  0.00    +0.000 N 
ATOM     10  C   UNL     1       5.907   2.775  -1.344  0.00  0.00    +0.000 C 
ATOM     11  C   UNL     1       7.356   3.236  -1.189  0.00  0.00    +0.000 C 
ATOM     12  C   UNL     1       7.474   4.380  -0.179  0.00  0.00    +0.000 C 
ATOM     13  C   UNL     1       6.773   4.038   1.143  0.00  0.00    +0.000 C 
ATOM     14  C   UNL     1       5.337   3.517   0.924  0.00  0.00    +0.000 C 
ATOM     15  H   UNL     1       6.350  -2.283   0.027  0.00  0.00    +0.000 HD
ATOM     16  H   UNL     1       4.786  -3.135   0.013  0.00  0.00    +0.000 HD
ENDROOT
BRANCH   1  17
ATOM     17  N   UNL     1       1.148   0.063  -0.015  0.00  0.00    +0.000 N 
ATOM     18  H   UNL     1       0.567   0.883   0.021  0.00  0.00    +0.000 HD
ATOM     19  H   UNL     1       0.742  -0.873  -0.014  0.00  0.00    +0.000 HD
ENDBRANCH   1  17
TORSDOF 1
