REMARK  Name = Mirabegron
REMARK  10 active torsions:
REMARK  status: ('A' for Active; 'I' for Inactive)
REMARK    1  A    between atoms: C_4  and  C_5
REMARK    2  A    between atoms: C_5  and  C_6
REMARK    3  A    between atoms: N_8  and  C_9
REMARK    4  A    between atoms: C_12  and  C_13
REMARK    5  A    between atoms: C_13  and  C_14
REMARK    6  A    between atoms: C_14  and  N_15
REMARK    7  A    between atoms: N_15  and  C_16
REMARK    8  A    between atoms: C_16  and  C_17
REMARK    9  A    between atoms: C_17  and  O_18
REMARK   10  A    between atoms: C_17  and  C_19
REMARK                            x       y       z     vdW  Elec       q    Type
REMARK                         _______ _______ _______ _____ _____    ______ ____
ROOT
ATOM      1  C   UNL     1       6.515 -11.105  -6.721  0.00  0.00    +0.000 A 
ATOM      2  C   UNL     1       5.705 -10.004  -6.441  0.00  0.00    +0.000 A 
ATOM      3  C   UNL     1       5.362  -9.710  -5.111  0.00  0.00    +0.000 A 
ATOM      4  C   UNL     1       5.795 -10.535  -4.063  0.00  0.00    +0.000 A 
ATOM      5  C   UNL     1       6.629 -11.615  -4.366  0.00  0.00    +0.000 A 
ATOM      6  C   UNL     1       6.979 -11.894  -5.671  0.00  0.00    +0.000 A 
ENDROOT
BRANCH   1   9
ATOM      7  C   UNL     1       6.933 -12.772  -8.436  0.00  0.00    +0.000 C 
ATOM      8  O   UNL     1       6.537 -13.666  -7.677  0.00  0.00    +0.000 OA
ATOM      9  N   UNL     1       6.892 -11.436  -8.042  0.00  0.00    +0.000 N 
ATOM     10  H   UNL     1       6.950 -10.691  -8.724  0.00  0.00    +0.000 HD
BRANCH   7  11
ATOM     11  C   UNL     1       7.449 -13.036  -9.847  0.00  0.00    +0.000 C 
BRANCH  11  15
ATOM     12  N   UNL     1       6.734 -17.749  -9.137  0.00  0.00    +0.000 N 
ATOM     13  C   UNL     1       7.094 -16.667  -9.834  0.00  0.00    +0.000 A 
ATOM     14  N   UNL     1       7.040 -15.465  -9.338  0.00  0.00    +0.000 NA
ATOM     15  C   UNL     1       7.456 -14.496 -10.236  0.00  0.00    +0.000 A 
ATOM     16  C   UNL     1       7.850 -15.026 -11.450  0.00  0.00    +0.000 A 
ATOM     17  S   UNL     1       7.666 -16.738 -11.445  0.00  0.00    +0.000 S 
ATOM     18  H   UNL     1       6.404 -17.625  -8.186  0.00  0.00    +0.000 HD
ATOM     19  H   UNL     1       6.774 -18.684  -9.511  0.00  0.00    +0.000 HD
ENDBRANCH  11  15
ENDBRANCH   7  11
ENDBRANCH   1   9
BRANCH   4  20
ATOM     20  C   UNL     1       5.316 -10.285  -2.653  0.00  0.00    +0.000 C 
BRANCH  20  21
ATOM     21  C   UNL     1       5.844 -11.329  -1.667  0.00  0.00    +0.000 C 
BRANCH  21  22
ATOM     22  N   UNL     1       5.371 -11.082  -0.317  0.00  0.00    +0.000 NA
ATOM     23  H   UNL     1       4.350 -11.156  -0.292  0.00  0.00    +0.000 HD
BRANCH  22  24
ATOM     24  C   UNL     1       5.923 -12.120   0.570  0.00  0.00    +0.000 C 
BRANCH  24  25
ATOM     25  C   UNL     1       5.405 -11.919   2.006  0.00  0.00    +0.000 C 
BRANCH  25  26
ATOM     26  C   UNL     1       6.541 -11.700   2.970  0.00  0.00    +0.000 A 
ATOM     27  C   UNL     1       7.220 -12.801   3.507  0.00  0.00    +0.000 A 
ATOM     28  C   UNL     1       8.185 -12.609   4.493  0.00  0.00    +0.000 A 
ATOM     29  C   UNL     1       8.541 -11.318   4.882  0.00  0.00    +0.000 A 
ATOM     30  C   UNL     1       7.927 -10.216   4.296  0.00  0.00    +0.000 A 
ATOM     31  C   UNL     1       6.935 -10.406   3.343  0.00  0.00    +0.000 A 
ENDBRANCH  25  26
BRANCH  25  32
ATOM     32  O   UNL     1       4.504 -10.800   2.067  0.00  0.00    +0.000 OA
ATOM     33  H   UNL     1       4.927 -10.132   1.490  0.00  0.00    +0.000 HD
ENDBRANCH  25  32
ENDBRANCH  24  25
ENDBRANCH  22  24
ENDBRANCH  21  22
ENDBRANCH  20  21
ENDBRANCH   4  20
TORSDOF 10
