REMARK  Name = Mirtazapine
REMARK  1 active torsions:
REMARK  status: ('A' for Active; 'I' for Inactive)
REMARK    1  A    between atoms: C_1  and  N_2
REMARK                            x       y       z     vdW  Elec       q    Type
REMARK                         _______ _______ _______ _____ _____    ______ ____
ROOT
ATOM      1  C   UNL     1       1.510  -0.377  -0.257  0.00  0.00    +0.000 C 
ATOM      2  N   UNL     1       2.997  -0.187  -0.374  0.00  0.00    +0.000 NA
ATOM      3  C   UNL     1       3.011   1.180  -0.757  0.00  0.00    +0.000 C 
ATOM      4  C   UNL     1       4.457   1.553  -0.474  0.00  0.00    +0.000 C 
ATOM      5  N   UNL     1       4.859   1.916  -1.777  0.00  0.00    +0.000 N 
ATOM      6  C   UNL     1       5.260   0.702  -2.491  0.00  0.00    +0.000 C 
ATOM      7  C   UNL     1       4.181  -0.639  -1.541  0.00  0.00    +0.000 C 
ATOM      8  C   UNL     1       6.850   1.370  -2.773  0.00  0.00    +0.000 A 
ATOM      9  C   UNL     1       8.089   0.829  -2.388  0.00  0.00    +0.000 A 
ATOM     10  C   UNL     1       9.335   1.594  -2.436  0.00  0.00    +0.000 A 
ATOM     11  C   UNL     1       9.435   2.926  -2.838  0.00  0.00    +0.000 A 
ATOM     12  C   UNL     1       8.283   3.503  -3.293  0.00  0.00    +0.000 A 
ATOM     13  C   UNL     1       7.035   2.762  -3.318  0.00  0.00    +0.000 A 
ATOM     14  C   UNL     1       5.964   3.622  -3.971  0.00  0.00    +0.000 C 
ATOM     15  C   UNL     1       4.859   4.009  -3.050  0.00  0.00    +0.000 A 
ATOM     16  C   UNL     1       4.375   3.175  -2.124  0.00  0.00    +0.000 A 
ATOM     17  N   UNL     1       3.403   3.598  -1.285  0.00  0.00    +0.000 NA
ATOM     18  C   UNL     1       2.877   4.824  -1.357  0.00  0.00    +0.000 A 
ATOM     19  C   UNL     1       3.343   5.737  -2.222  0.00  0.00    +0.000 A 
ATOM     20  C   UNL     1       4.363   5.344  -3.087  0.00  0.00    +0.000 A 
ENDROOT
TORSDOF 0
