REMARK  Name = Misoprostol
REMARK  19 active torsions:
REMARK  status: ('A' for Active; 'I' for Inactive)
REMARK    1  A    between atoms: C_1  and  C_2
REMARK    2  A    between atoms: C_2  and  C_3
REMARK    3  A    between atoms: C_3  and  C_4
REMARK    4  A    between atoms: C_4  and  C_5
REMARK    5  A    between atoms: C_5  and  C_6
REMARK    6  A    between atoms: C_5  and  O_7
REMARK    7  A    between atoms: C_5  and  C_8
REMARK    8  A    between atoms: C_8  and  C_9
REMARK    9  A    between atoms: C_10  and  C_11
REMARK   10  A    between atoms: C_12  and  O_13
REMARK   11  A    between atoms: C_17  and  C_18
REMARK   12  A    between atoms: C_18  and  C_19
REMARK   13  A    between atoms: C_19  and  C_20
REMARK   14  A    between atoms: C_20  and  C_21
REMARK   15  A    between atoms: C_21  and  C_22
REMARK   16  A    between atoms: C_22  and  C_23
REMARK   17  A    between atoms: C_23  and  C_24
REMARK   18  A    between atoms: C_24  and  O_26
REMARK   19  A    between atoms: O_26  and  C_27
REMARK                            x       y       z     vdW  Elec       q    Type
REMARK                         _______ _______ _______ _____ _____    ______ ____
ROOT
ATOM      1  C   UNL     1       8.897   5.539  -2.091  0.00  0.00    +0.000 C 
ATOM      2  C   UNL     1      10.278   5.774  -1.420  0.00  0.00    +0.000 C 
ATOM      3  C   UNL     1      10.429   7.281  -1.191  0.00  0.00    +0.000 C 
ATOM      4  C   UNL     1       9.107   7.820  -1.667  0.00  0.00    +0.000 C 
ATOM      5  O   UNL     1       8.906   8.997  -1.941  0.00  0.00    +0.000 OA
ATOM      6  C   UNL     1       8.044   6.753  -1.686  0.00  0.00    +0.000 C 
ENDROOT
BRANCH   2   7
ATOM      7  O   UNL     1      10.398   5.038  -0.202  0.00  0.00    +0.000 OA
ATOM      8  H   UNL     1       9.702   5.294   0.422  0.00  0.00    +0.000 HD
ENDBRANCH   2   7
BRANCH   1  10
ATOM      9  C   UNL     1       9.856   5.925  -4.367  0.00  0.00    +0.000 C 
ATOM     10  C   UNL     1       8.886   5.435  -3.594  0.00  0.00    +0.000 C 
BRANCH   9  11
ATOM     11  C   UNL     1       9.890   5.840  -5.858  0.00  0.00    +0.000 C 
BRANCH  11  12
ATOM     12  C   UNL     1      11.208   6.433  -6.399  0.00  0.00    +0.000 C 
ATOM     13  C   UNL     1      12.424   5.680  -5.829  0.00  0.00    +0.000 C 
BRANCH  12  14
ATOM     14  O   UNL     1      11.259   7.808  -5.993  0.00  0.00    +0.000 OA
ATOM     15  H   UNL     1      12.098   8.198  -6.283  0.00  0.00    +0.000 HD
ENDBRANCH  12  14
BRANCH  12  16
ATOM     16  C   UNL     1      11.191   6.365  -7.932  0.00  0.00    +0.000 C 
BRANCH  16  17
ATOM     17  C   UNL     1      12.450   6.973  -8.541  0.00  0.00    +0.000 C 
BRANCH  17  19
ATOM     18  C   UNL     1      13.726   7.487 -10.591  0.00  0.00    +0.000 C 
ATOM     19  C   UNL     1      12.445   6.879 -10.053  0.00  0.00    +0.000 C 
ENDBRANCH  17  19
ENDBRANCH  16  17
ENDBRANCH  12  16
ENDBRANCH  11  12
ENDBRANCH   9  11
ENDBRANCH   1  10
BRANCH   6  20
ATOM     20  C   UNL     1       7.433   6.628  -0.295  0.00  0.00    +0.000 C 
BRANCH  20  21
ATOM     21  C   UNL     1       6.423   5.491  -0.263  0.00  0.00    +0.000 C 
BRANCH  21  22
ATOM     22  C   UNL     1       5.862   5.306   1.131  0.00  0.00    +0.000 C 
BRANCH  22  23
ATOM     23  C   UNL     1       4.853   4.163   1.131  0.00  0.00    +0.000 C 
BRANCH  23  24
ATOM     24  C   UNL     1       4.279   3.981   2.525  0.00  0.00    +0.000 C 
BRANCH  24  25
ATOM     25  C   UNL     1       3.249   2.855   2.589  0.00  0.00    +0.000 C 
BRANCH  25  26
ATOM     26  C   UNL     1       2.716   2.731   3.998  0.00  0.00    +0.000 C 
ATOM     27  O   UNL     1       3.069   3.436   4.941  0.00  0.00    +0.000 OA
BRANCH  26  28
ATOM     28  O   UNL     1       1.793   1.735   4.089  0.00  0.00    +0.000 OA
ATOM     29  C   UNL     1       1.257   1.576   5.407  0.00  0.00    +0.000 C 
ENDBRANCH  26  28
ENDBRANCH  25  26
ENDBRANCH  24  25
ENDBRANCH  23  24
ENDBRANCH  22  23
ENDBRANCH  21  22
ENDBRANCH  20  21
ENDBRANCH   6  20
TORSDOF 16
