REMARK  Name = Mitapivat
REMARK  6 active torsions:
REMARK  status: ('A' for Active; 'I' for Inactive)
REMARK    1  A    between atoms: C_2  and  C_13
REMARK    2  A    between atoms: N_6  and  C_7
REMARK    3  A    between atoms: C_7  and  C_8
REMARK    4  A    between atoms: C_16  and  N_17
REMARK    5  A    between atoms: N_17  and  S_18
REMARK    6  A    between atoms: S_18  and  C_21
REMARK                            x       y       z     vdW  Elec       q    Type
REMARK                         _______ _______ _______ _____ _____    ______ ____
ROOT
ATOM      1  C   UNL     1       3.055  -1.337   0.079  0.00  0.00    +0.000 A 
ATOM      2  C   UNL     1       4.163  -1.471   0.919  0.00  0.00    +0.000 A 
ATOM      3  C   UNL     1       4.914  -2.649   0.890  0.00  0.00    +0.000 A 
ATOM      4  C   UNL     1       4.491  -3.750   0.142  0.00  0.00    +0.000 A 
ATOM      5  C   UNL     1       3.340  -3.625  -0.650  0.00  0.00    +0.000 A 
ATOM      6  C   UNL     1       2.611  -2.428  -0.664  0.00  0.00    +0.000 A 
ENDROOT
BRANCH   1   8
ATOM      7  O   UNL     1       1.066  -0.133   0.085  0.00  0.00    +0.000 OA
ATOM      8  C   UNL     1       2.292  -0.078   0.025  0.00  0.00    +0.000 C 
ATOM      9  N   UNL     1       2.991   1.114   0.036  0.00  0.00    +0.000 N 
ATOM     10  C   UNL     1       4.228   1.474  -0.696  0.00  0.00    +0.000 C 
ATOM     11  C   UNL     1       4.061   2.809  -1.496  0.00  0.00    +0.000 C 
ATOM     12  N   UNL     1       3.486   3.914  -0.688  0.00  0.00    +0.000 NA
ATOM     13  C   UNL     1       2.189   3.397  -0.182  0.00  0.00    +0.000 C 
ATOM     14  C   UNL     1       2.370   2.201   0.748  0.00  0.00    +0.000 C 
BRANCH  12  15
ATOM     15  C   UNL     1       4.429   4.324   0.377  0.00  0.00    +0.000 C 
BRANCH  15  16
ATOM     16  C   UNL     1       3.937   5.422   1.285  0.00  0.00    +0.000 C 
ATOM     17  C   UNL     1       2.692   6.223   0.985  0.00  0.00    +0.000 C 
ATOM     18  C   UNL     1       2.697   5.232   2.136  0.00  0.00    +0.000 C 
ENDBRANCH  15  16
ENDBRANCH  12  15
ENDBRANCH   1   8
BRANCH   4  19
ATOM     19  N   UNL     1       5.302  -4.925   0.239  0.00  0.00    +0.000 N 
ATOM     20  H   UNL     1       6.033  -4.973   0.939  0.00  0.00    +0.000 HD
BRANCH  19  21
ATOM     21  S   UNL     1       4.859  -6.364  -0.437  0.00  0.00    +0.000 S 
ATOM     22  O   UNL     1       3.574  -6.744   0.036  0.00  0.00    +0.000 OA
ATOM     23  O   UNL     1       5.071  -6.223  -1.898  0.00  0.00    +0.000 OA
BRANCH  21  24
ATOM     24  C   UNL     1       6.015  -7.635   0.166  0.00  0.00    +0.000 A 
ATOM     25  C   UNL     1       5.518  -8.881  -0.375  0.00  0.00    +0.000 A 
ATOM     26  C   UNL     1       6.119 -10.053  -0.018  0.00  0.00    +0.000 A 
ATOM     27  C   UNL     1       7.375  -9.921   0.530  0.00  0.00    +0.000 A 
ATOM     28  C   UNL     1       7.954  -8.647   0.827  0.00  0.00    +0.000 A 
ATOM     29  C   UNL     1       7.271  -7.491   1.084  0.00  0.00    +0.000 A 
ATOM     30  N   UNL     1       8.188  -6.716   2.145  0.00  0.00    +0.000 NA
ATOM     31  C   UNL     1       9.562  -6.858   2.133  0.00  0.00    +0.000 A 
ATOM     32  C   UNL     1       9.856  -7.230   0.912  0.00  0.00    +0.000 A 
ATOM     33  C   UNL     1       9.337  -8.514   0.895  0.00  0.00    +0.000 A 
ENDBRANCH  21  24
ENDBRANCH  19  21
ENDBRANCH   4  19
TORSDOF 6
