REMARK  Name = Mitotane
REMARK  3 active torsions:
REMARK  status: ('A' for Active; 'I' for Inactive)
REMARK    1  A    between atoms: C_2  and  C_4
REMARK    2  A    between atoms: C_4  and  C_5
REMARK    3  A    between atoms: C_4  and  C_12
REMARK                            x       y       z     vdW  Elec       q    Type
REMARK                         _______ _______ _______ _____ _____    ______ ____
ROOT
ATOM      1  C   UNL     1       3.382  -1.281  -0.388  0.00  0.00    +0.000 C 
ENDROOT
BRANCH   1   2
ATOM      2  C   UNL     1       2.889  -1.748  -1.776  0.00  0.00    +0.000 A 
ATOM      3  C   UNL     1       2.423  -0.836  -2.736  0.00  0.00    +0.000 A 
ATOM      4  C   UNL     1       1.997  -1.271  -3.994  0.00  0.00    +0.000 A 
ATOM      5  C   UNL     1       2.070  -2.616  -4.328  0.00  0.00    +0.000 A 
ATOM      6 CL   UNL     1       1.577  -3.136  -5.891  0.00  0.00    +0.000 Cl
ATOM      7  C   UNL     1       2.543  -3.542  -3.404  0.00  0.00    +0.000 A 
ATOM      8  C   UNL     1       2.926  -3.113  -2.128  0.00  0.00    +0.000 A 
ENDBRANCH   1   2
BRANCH   1   9
ATOM      9  C   UNL     1       4.933  -1.224  -0.377  0.00  0.00    +0.000 A 
ATOM     10  C   UNL     1       5.618  -2.467  -0.312  0.00  0.00    +0.000 A 
ATOM     11  C   UNL     1       7.014  -2.551  -0.359  0.00  0.00    +0.000 A 
ATOM     12  C   UNL     1       7.774  -1.398  -0.416  0.00  0.00    +0.000 A 
ATOM     13  C   UNL     1       7.138  -0.163  -0.454  0.00  0.00    +0.000 A 
ATOM     14  C   UNL     1       5.738  -0.070  -0.470  0.00  0.00    +0.000 A 
ATOM     15 CL   UNL     1       5.170   1.549  -0.668  0.00  0.00    +0.000 Cl
ENDBRANCH   1   9
BRANCH   1  17
ATOM     16 CL   UNL     1       0.842  -0.198   0.169  0.00  0.00    +0.000 Cl
ATOM     17  C   UNL     1       2.634  -0.021   0.155  0.00  0.00    +0.000 C 
ATOM     18 CL   UNL     1       3.123   0.389   1.832  0.00  0.00    +0.000 Cl
ENDBRANCH   1  17
TORSDOF 3
