REMARK  Name = Mitoxantrone
REMARK  16 active torsions:
REMARK  status: ('A' for Active; 'I' for Inactive)
REMARK    1  A    between atoms: O_1  and  C_2
REMARK    2  A    between atoms: C_2  and  C_3
REMARK    3  A    between atoms: C_3  and  N_4
REMARK    4  A    between atoms: N_4  and  C_5
REMARK    5  A    between atoms: C_5  and  C_6
REMARK    6  A    between atoms: C_6  and  N_7
REMARK    7  A    between atoms: N_7  and  C_8
REMARK    8  A    between atoms: C_11  and  N_12
REMARK    9  A    between atoms: N_12  and  C_13
REMARK   10  A    between atoms: C_13  and  C_14
REMARK   11  A    between atoms: C_14  and  N_15
REMARK   12  A    between atoms: N_15  and  C_16
REMARK   13  A    between atoms: C_16  and  C_17
REMARK   14  A    between atoms: C_17  and  O_18
REMARK   15  A    between atoms: C_25  and  O_26
REMARK   16  A    between atoms: C_29  and  O_30
REMARK                            x       y       z     vdW  Elec       q    Type
REMARK                         _______ _______ _______ _____ _____    ______ ____
ROOT
ATOM      1  C   UNL     1       8.276  -2.650  -3.611  0.00  0.00    +0.000 A 
ATOM      2  C   UNL     1       9.159  -2.877  -2.568  0.00  0.00    +0.000 A 
ATOM      3  C   UNL     1      10.524  -3.006  -2.806  0.00  0.00    +0.000 A 
ATOM      4  C   UNL     1      11.081  -2.886  -4.088  0.00  0.00    +0.000 A 
ATOM      5  C   UNL     1      10.201  -2.617  -5.157  0.00  0.00    +0.000 A 
ATOM      6  C   UNL     1       8.818  -2.503  -4.912  0.00  0.00    +0.000 A 
ATOM      7  C   UNL     1       7.902  -2.208  -6.022  0.00  0.00    +0.000 C 
ATOM      8  O   UNL     1       6.698  -2.106  -5.780  0.00  0.00    +0.000 OA
ATOM      9  C   UNL     1       8.409  -2.036  -7.388  0.00  0.00    +0.000 A 
ATOM     10  C   UNL     1       9.773  -2.169  -7.652  0.00  0.00    +0.000 A 
ATOM     11  C   UNL     1      10.229  -2.019  -8.970  0.00  0.00    +0.000 A 
ATOM     12  C   UNL     1       9.330  -1.739 -10.000  0.00  0.00    +0.000 A 
ATOM     13  C   UNL     1       7.969  -1.602  -9.730  0.00  0.00    +0.000 A 
ATOM     14  C   UNL     1       7.512  -1.749  -8.429  0.00  0.00    +0.000 A 
ATOM     15  C   UNL     1      10.712  -2.466  -6.551  0.00  0.00    +0.000 C 
ATOM     16  O   UNL     1      11.909  -2.577  -6.825  0.00  0.00    +0.000 OA
ENDROOT
BRANCH   4  17
ATOM     17  N   UNL     1      12.443  -3.073  -4.278  0.00  0.00    +0.000 N 
ATOM     18  H   UNL     1      12.811  -2.915  -5.220  0.00  0.00    +0.000 HD
BRANCH  17  19
ATOM     19  C   UNL     1      13.360  -3.327  -3.183  0.00  0.00    +0.000 C 
BRANCH  19  20
ATOM     20  C   UNL     1      14.809  -3.437  -3.665  0.00  0.00    +0.000 C 
BRANCH  20  21
ATOM     21  N   UNL     1      15.691  -3.734  -2.531  0.00  0.00    +0.000 NA
ATOM     22  H   UNL     1      15.406  -4.612  -2.095  0.00  0.00    +0.000 HD
BRANCH  21  23
ATOM     23  C   UNL     1      17.080  -3.827  -2.971  0.00  0.00    +0.000 C 
BRANCH  23  24
ATOM     24  C   UNL     1      18.005  -4.130  -1.790  0.00  0.00    +0.000 C 
BRANCH  24  25
ATOM     25  O   UNL     1      19.355  -4.228  -2.227  0.00  0.00    +0.000 OA
ATOM     26  H   UNL     1      19.400  -4.943  -2.884  0.00  0.00    +0.000 HD
ENDBRANCH  24  25
ENDBRANCH  23  24
ENDBRANCH  21  23
ENDBRANCH  20  21
ENDBRANCH  19  20
ENDBRANCH  17  19
ENDBRANCH   4  17
BRANCH  14  27
ATOM     27  O   UNL     1       6.178  -1.614  -8.168  0.00  0.00    +0.000 OA
ATOM     28  H   UNL     1       5.656  -1.422  -8.958  0.00  0.00    +0.000 HD
ENDBRANCH  14  27
BRANCH  11  29
ATOM     29  O   UNL     1      11.543  -2.135  -9.338  0.00  0.00    +0.000 OA
ATOM     30  H   UNL     1      12.076  -2.331  -8.535  0.00  0.00    +0.000 HD
ENDBRANCH  11  29
BRANCH   1  31
ATOM     31  N   UNL     1       6.888  -2.667  -3.342  0.00  0.00    +0.000 N 
ATOM     32  H   UNL     1       6.365  -2.580  -4.229  0.00  0.00    +0.000 HD
BRANCH  31  33
ATOM     33  C   UNL     1       6.407  -1.687  -2.362  0.00  0.00    +0.000 C 
BRANCH  33  34
ATOM     34  C   UNL     1       4.865  -1.640  -2.373  0.00  0.00    +0.000 C 
BRANCH  34  35
ATOM     35  N   UNL     1       4.359  -0.830  -1.256  0.00  0.00    +0.000 NA
ATOM     36  H   UNL     1       4.691  -1.235  -0.380  0.00  0.00    +0.000 HD
BRANCH  35  37
ATOM     37  C   UNL     1       2.894  -0.821  -1.252  0.00  0.00    +0.000 C 
BRANCH  37  38
ATOM     38  C   UNL     1       2.365   0.014  -0.085  0.00  0.00    +0.000 C 
BRANCH  38  39
ATOM     39  O   UNL     1       0.942  -0.004  -0.087  0.00  0.00    +0.000 OA
ATOM     40  H   UNL     1       0.655   0.553   0.656  0.00  0.00    +0.000 HD
ENDBRANCH  38  39
ENDBRANCH  37  38
ENDBRANCH  35  37
ENDBRANCH  34  35
ENDBRANCH  33  34
ENDBRANCH  31  33
ENDBRANCH   1  31
TORSDOF 16
