REMARK  Name = Mitomycin
REMARK  7 active torsions:
REMARK  status: ('A' for Active; 'I' for Inactive)
REMARK    1  A    between atoms: C_7  and  C_8
REMARK    2  A    between atoms: C_8  and  O_9
REMARK    3  A    between atoms: O_9  and  C_10
REMARK    4  A    between atoms: C_13  and  O_14
REMARK    5  A    between atoms: O_14  and  C_15
REMARK    6  A    between atoms: C_21  and  N_22
REMARK    7  A    between atoms: C_23  and  C_24
REMARK                            x       y       z     vdW  Elec       q    Type
REMARK                         _______ _______ _______ _____ _____    ______ ____
ROOT
ATOM      1  C   UNL     1       1.964   0.224   0.035  0.00  0.00    +0.000 C 
ATOM      2  C   UNL     1       2.116  -0.467  -1.277  0.00  0.00    +0.000 C 
ATOM      3  N   UNL     1       2.471  -1.822  -0.850  0.00  0.00    +0.000 N 
ATOM      4  C   UNL     1       1.573  -2.997  -0.253  0.00  0.00    +0.000 C 
ATOM      5  C   UNL     1       2.304  -3.506   0.729  0.00  0.00    +0.000 C 
ATOM      6  C   UNL     1       3.711  -3.137   0.418  0.00  0.00    +0.000 C 
ATOM      7  C   UNL     1       3.580  -1.625   0.246  0.00  0.00    +0.000 C 
ATOM      8  C   UNL     1       2.878  -0.494   0.998  0.00  0.00    +0.000 C 
ATOM      9  N   UNL     1       3.022   0.971   0.672  0.00  0.00    +0.000 NA
ATOM     10  C   UNL     1       1.713  -3.486   2.130  0.00  0.00    +0.000 C 
ATOM     11  O   UNL     1       2.475  -3.902   3.011  0.00  0.00    +0.000 OA
ATOM     12  C   UNL     1       0.103  -3.223   2.440  0.00  0.00    +0.000 C 
ATOM     13  C   UNL     1      -0.239  -4.285   1.722  0.00  0.00    +0.000 C 
ATOM     14  C   UNL     1      -1.425  -4.628   3.038  0.00  0.00    +0.000 C 
ATOM     15  C   UNL     1       0.203  -3.056   0.378  0.00  0.00    +0.000 C 
ATOM     16  O   UNL     1      -0.252  -1.901   0.256  0.00  0.00    +0.000 OA
ATOM     17  H   UNL     1       3.762   1.187  -0.003  0.00  0.00    +0.000 HD
ENDROOT
BRANCH  12  18
ATOM     18  N   UNL     1      -1.221  -2.372   2.172  0.00  0.00    +0.000 N 
ATOM     19  H   UNL     1      -1.282  -2.081   1.175  0.00  0.00    +0.000 HD
ATOM     20  H   UNL     1      -2.040  -3.018   2.010  0.00  0.00    +0.000 HD
ENDBRANCH  12  18
BRANCH   7  21
ATOM     21  O   UNL     1       4.949  -1.158   0.124  0.00  0.00    +0.000 OA
ATOM     22  C   UNL     1       5.549  -1.128   1.493  0.00  0.00    +0.000 C 
ENDBRANCH   7  21
BRANCH   6  23
ATOM     23  C   UNL     1       4.171  -3.660  -1.061  0.00  0.00    +0.000 C 
BRANCH  23  24
ATOM     24  O   UNL     1       3.894  -5.065  -1.181  0.00  0.00    +0.000 OA
BRANCH  24  25
ATOM     25  C   UNL     1       3.934  -5.670  -2.378  0.00  0.00    +0.000 C 
ATOM     26  N   UNL     1       4.368  -5.011  -3.461  0.00  0.00    +0.000 N 
ATOM     27  O   UNL     1       3.591  -6.895  -2.482  0.00  0.00    +0.000 OA
ATOM     28  H   UNL     1       4.621  -4.027  -3.480  0.00  0.00    +0.000 HD
ATOM     29  H   UNL     1       4.475  -5.532  -4.319  0.00  0.00    +0.000 HD
ENDBRANCH  24  25
ENDBRANCH  23  24
ENDBRANCH   6  23
TORSDOF 5
