REMARK  Name = Mizolastine
REMARK  4 active torsions:
REMARK  status: ('A' for Active; 'I' for Inactive)
REMARK    1  A    between atoms: C_1  and  N_2
REMARK    2  A    between atoms: N_2  and  C_3
REMARK    3  A    between atoms: N_17  and  C_18
REMARK    4  A    between atoms: C_18  and  C_19
REMARK                            x       y       z     vdW  Elec       q    Type
REMARK                         _______ _______ _______ _____ _____    ______ ____
ROOT
ATOM      1  C   UNL     1       2.592   0.800  -0.552  0.00  0.00    +0.000 C 
ATOM      2  C   UNL     1       3.049   1.931   0.353  0.00  0.00    +0.000 C 
ATOM      3  C   UNL     1       2.276   3.193   0.479  0.00  0.00    +0.000 C 
ATOM      4  N   UNL     1       2.001   3.573  -0.888  0.00  0.00    +0.000 N 
ATOM      5  C   UNL     1       1.058   2.651  -1.524  0.00  0.00    +0.000 C 
ATOM      6  C   UNL     1       1.806   1.335  -1.808  0.00  0.00    +0.000 C 
ATOM      7  C   UNL     1       2.057   4.884  -1.221  0.00  0.00    +0.000 A 
ATOM      8  N   UNL     1       1.016   5.668  -1.405  0.00  0.00    +0.000 NA
ATOM      9  C   UNL     1       1.510   6.902  -1.740  0.00  0.00    +0.000 A 
ATOM     10  C   UNL     1       2.896   6.876  -1.807  0.00  0.00    +0.000 A 
ATOM     11  C   UNL     1       3.654   8.003  -2.173  0.00  0.00    +0.000 A 
ATOM     12  C   UNL     1       2.962   9.187  -2.454  0.00  0.00    +0.000 A 
ATOM     13  C   UNL     1       1.572   9.242  -2.370  0.00  0.00    +0.000 A 
ATOM     14  C   UNL     1       0.833   8.104  -2.017  0.00  0.00    +0.000 A 
ATOM     15  N   UNL     1       3.246   5.568  -1.460  0.00  0.00    +0.000 N 
ENDROOT
BRANCH   1  17
ATOM     16  C   UNL     1       0.655  -0.350   0.334  0.00  0.00    +0.000 C 
ATOM     17  N   UNL     1       2.090  -0.239   0.336  0.00  0.00    +0.000 N 
ATOM     18  C   UNL     1       2.937  -1.011   1.182  0.00  0.00    +0.000 A 
ATOM     19  N   UNL     1       2.717  -2.271   1.431  0.00  0.00    +0.000 NA
ATOM     20  C   UNL     1       3.613  -2.945   2.240  0.00  0.00    +0.000 A 
ATOM     21  C   UNL     1       4.593  -2.411   2.972  0.00  0.00    +0.000 A 
ATOM     22  C   UNL     1       4.876  -0.998   2.733  0.00  0.00    +0.000 A 
ATOM     23  O   UNL     1       5.786  -0.412   3.262  0.00  0.00    +0.000 OA
ATOM     24  N   UNL     1       4.057  -0.439   1.782  0.00  0.00    +0.000 N 
ATOM     25  H   UNL     1       4.456   0.418   1.476  0.00  0.00    +0.000 HD
ENDBRANCH   1  17
BRANCH  15  26
ATOM     26  C   UNL     1       4.672   5.186  -1.477  0.00  0.00    +0.000 C 
BRANCH  26  27
ATOM     27  C   UNL     1       5.132   3.760  -1.334  0.00  0.00    +0.000 A 
ATOM     28  C   UNL     1       4.773   2.822  -2.318  0.00  0.00    +0.000 A 
ATOM     29  C   UNL     1       5.063   1.460  -2.140  0.00  0.00    +0.000 A 
ATOM     30  C   UNL     1       5.680   1.027  -0.955  0.00  0.00    +0.000 A 
ATOM     31  F   UNL     1       5.495  -0.249  -0.571  0.00  0.00    +0.000 F 
ATOM     32  C   UNL     1       6.090   1.946   0.017  0.00  0.00    +0.000 A 
ATOM     33  C   UNL     1       5.839   3.318  -0.183  0.00  0.00    +0.000 A 
ENDBRANCH  26  27
ENDBRANCH  15  26
TORSDOF 3
