REMARK  Name = Mobocertinib
REMARK  19 active torsions:
REMARK  status: ('A' for Active; 'I' for Inactive)
REMARK    1  A    between atoms: C_1  and  O_2
REMARK    2  A    between atoms: O_2  and  C_3
REMARK    3  A    between atoms: C_4  and  N_5
REMARK    4  A    between atoms: C_9  and  C_10
REMARK    5  A    between atoms: C_10  and  O_12
REMARK    6  A    between atoms: O_12  and  C_13
REMARK    7  A    between atoms: C_13  and  C_14
REMARK    8  A    between atoms: C_13  and  C_15
REMARK    9  A    between atoms: C_16  and  C_18
REMARK   10  A    between atoms: N_20  and  C_21
REMARK   11  A    between atoms: C_29  and  N_30
REMARK   12  A    between atoms: C_31  and  C_33
REMARK   13  A    between atoms: C_35  and  N_37
REMARK   14  A    between atoms: N_37  and  C_38
REMARK   15  A    between atoms: N_37  and  C_39
REMARK   16  A    between atoms: C_39  and  C_40
REMARK   17  A    between atoms: C_40  and  N_41
REMARK   18  A    between atoms: N_41  and  C_42
REMARK   19  A    between atoms: N_41  and  C_43
REMARK                            x       y       z     vdW  Elec       q    Type
REMARK                         _______ _______ _______ _____ _____    ______ ____
ROOT
ATOM      1  N   UNL     1       3.917  -2.208   0.577  0.00  0.00    +0.000 N 
ATOM      2  C   UNL     1       3.062  -1.899   1.792  0.00  0.00    +0.000 A 
ATOM      3  N   UNL     1       3.754  -1.205   2.696  0.00  0.00    +0.000 NA
ATOM      4  C   UNL     1       3.025  -0.783   3.763  0.00  0.00    +0.000 A 
ATOM      5  C   UNL     1       1.665  -1.069   4.106  0.00  0.00    +0.000 A 
ATOM      6  C   UNL     1       0.899  -1.985   3.380  0.00  0.00    +0.000 A 
ATOM      7  N   UNL     1       1.638  -2.345   2.109  0.00  0.00    +0.000 NA
ATOM      8  H   UNL     1       4.888  -2.335   0.886  0.00  0.00    +0.000 HD
ENDROOT
BRANCH   6   9
ATOM      9  C   UNL     1      -0.869  -2.373   3.726  0.00  0.00    +0.000 A 
ATOM     10  C   UNL     1      -1.168  -1.142   3.211  0.00  0.00    +0.000 A 
ATOM     11  N   UNL     1      -2.463  -1.240   2.844  0.00  0.00    +0.000 N 
ATOM     12  C   UNL     1      -2.977  -2.285   1.968  0.00  0.00    +0.000 C 
ATOM     13  C   UNL     1      -2.942  -0.985   4.093  0.00  0.00    +0.000 A 
ATOM     14  C   UNL     1      -2.477  -2.291   4.691  0.00  0.00    +0.000 A 
ATOM     15  C   UNL     1      -3.779  -2.017   5.624  0.00  0.00    +0.000 A 
ATOM     16  C   UNL     1      -4.416  -0.798   6.237  0.00  0.00    +0.000 A 
ATOM     17  C   UNL     1      -3.783   0.363   5.994  0.00  0.00    +0.000 A 
ATOM     18  C   UNL     1      -2.936   0.236   4.928  0.00  0.00    +0.000 A 
ENDBRANCH   6   9
BRANCH   1  20
ATOM     19  C   UNL     1       3.028  -0.538  -1.004  0.00  0.00    +0.000 A 
ATOM     20  C   UNL     1       4.015  -1.463  -0.710  0.00  0.00    +0.000 A 
ATOM     21  C   UNL     1       4.877  -1.859  -1.820  0.00  0.00    +0.000 A 
ATOM     22  C   UNL     1       4.565  -1.555  -3.208  0.00  0.00    +0.000 A 
ATOM     23  C   UNL     1       3.518  -0.613  -3.459  0.00  0.00    +0.000 A 
ATOM     24  C   UNL     1       2.784  -0.155  -2.325  0.00  0.00    +0.000 A 
BRANCH  22  25
ATOM     25  N   UNL     1       5.310  -2.248  -4.286  0.00  0.00    +0.000 N 
ATOM     26  C   UNL     1       4.734  -2.635  -5.513  0.00  0.00    +0.000 C 
ATOM     27  O   UNL     1       3.532  -2.824  -5.685  0.00  0.00    +0.000 OA
ATOM     28  H   UNL     1       6.192  -2.678  -4.045  0.00  0.00    +0.000 HD
BRANCH  26  29
ATOM     29  C   UNL     1       5.638  -2.733  -6.741  0.00  0.00    +0.000 C 
ATOM     30  C   UNL     1       5.239  -2.321  -7.969  0.00  0.00    +0.000 C 
ENDBRANCH  26  29
ENDBRANCH  22  25
BRANCH  19  32
ATOM     31  C   UNL     1       1.016   0.052   0.024  0.00  0.00    +0.000 C 
ATOM     32  O   UNL     1       2.433   0.123   0.040  0.00  0.00    +0.000 OA
ENDBRANCH  19  32
BRANCH  23  33
ATOM     33  N   UNL     1       3.233  -0.005  -4.688  0.00  0.00    +0.000 N 
ATOM     34  C   UNL     1       4.097  -0.091  -5.839  0.00  0.00    +0.000 C 
BRANCH  33  35
ATOM     35  C   UNL     1       2.011   0.772  -4.880  0.00  0.00    +0.000 C 
BRANCH  35  36
ATOM     36  C   UNL     1       1.764   1.109  -6.363  0.00  0.00    +0.000 C 
BRANCH  36  37
ATOM     37  N   UNL     1       0.668   2.045  -6.597  0.00  0.00    +0.000 NA
ATOM     38  C   UNL     1       0.953   3.300  -5.900  0.00  0.00    +0.000 C 
ATOM     39  C   UNL     1       0.590   2.277  -8.041  0.00  0.00    +0.000 C 
ENDBRANCH  36  37
ENDBRANCH  35  36
ENDBRANCH  33  35
ENDBRANCH  23  33
ENDBRANCH   1  20
BRANCH   5  40
ATOM     40  C   UNL     1       1.107  -0.042   4.997  0.00  0.00    +0.000 C 
ATOM     41  O   UNL     1       0.205   0.676   4.719  0.00  0.00    +0.000 OA
BRANCH  40  42
ATOM     42  O   UNL     1       1.791   0.100   6.161  0.00  0.00    +0.000 OA
BRANCH  42  43
ATOM     43  C   UNL     1       0.863   0.683   7.087  0.00  0.00    +0.000 C 
ATOM     44  C   UNL     1       0.066  -0.483   7.655  0.00  0.00    +0.000 C 
ATOM     45  C   UNL     1       1.636   1.439   8.128  0.00  0.00    +0.000 C 
ENDBRANCH  42  43
ENDBRANCH  40  42
ENDBRANCH   5  40
TORSDOF 12
