REMARK  Name = Moclobemide
REMARK  4 active torsions:
REMARK  status: ('A' for Active; 'I' for Inactive)
REMARK    1  A    between atoms: C_5  and  C_8
REMARK    2  A    between atoms: N_10  and  C_11
REMARK    3  A    between atoms: C_11  and  C_12
REMARK    4  A    between atoms: C_12  and  N_13
REMARK                            x       y       z     vdW  Elec       q    Type
REMARK                         _______ _______ _______ _____ _____    ______ ____
ROOT
ATOM      1  C   UNL     1       3.896   0.028   0.092  0.00  0.00    +0.000 C 
ATOM      2  O   UNL     1       4.505  -1.043   0.078  0.00  0.00    +0.000 OA
ATOM      3  N   UNL     1       4.538   1.246   0.189  0.00  0.00    +0.000 N 
ATOM      4  H   UNL     1       4.059   2.126   0.097  0.00  0.00    +0.000 HD
ENDROOT
BRANCH   1   9
ATOM      5 CL   UNL     1      -2.096  -0.030  -0.012  0.00  0.00    +0.000 Cl
ATOM      6  C   UNL     1      -0.378  -0.012  -0.019  0.00  0.00    +0.000 A 
ATOM      7  C   UNL     1       0.335  -1.209  -0.020  0.00  0.00    +0.000 A 
ATOM      8  C   UNL     1       1.732  -1.184  -0.002  0.00  0.00    +0.000 A 
ATOM      9  C   UNL     1       2.414   0.042   0.017  0.00  0.00    +0.000 A 
ATOM     10  C   UNL     1       1.683   1.236  -0.003  0.00  0.00    +0.000 A 
ATOM     11  C   UNL     1       0.291   1.208  -0.018  0.00  0.00    +0.000 A 
ENDBRANCH   1   9
BRANCH   3  12
ATOM     12  C   UNL     1       5.966   1.264   0.296  0.00  0.00    +0.000 C 
BRANCH  12  13
ATOM     13  C   UNL     1       6.597   2.667   0.190  0.00  0.00    +0.000 C 
BRANCH  13  14
ATOM     14  N   UNL     1       8.079   2.698   0.149  0.00  0.00    +0.000 NA
ATOM     15  C   UNL     1       8.575   3.765  -0.761  0.00  0.00    +0.000 C 
ATOM     16  C   UNL     1       8.285   3.464  -2.247  0.00  0.00    +0.000 C 
ATOM     17  O   UNL     1       8.866   2.208  -2.638  0.00  0.00    +0.000 OA
ATOM     18  C   UNL     1       8.336   1.160  -1.818  0.00  0.00    +0.000 C 
ATOM     19  C   UNL     1       8.666   1.423  -0.332  0.00  0.00    +0.000 C 
ENDBRANCH  13  14
ENDBRANCH  12  13
ENDBRANCH   3  12
TORSDOF 4
