REMARK  Name = Modafinil
REMARK  5 active torsions:
REMARK  status: ('A' for Active; 'I' for Inactive)
REMARK    1  A    between atoms: C_2  and  C_4
REMARK    2  A    between atoms: C_4  and  S_5
REMARK    3  A    between atoms: S_5  and  C_7
REMARK    4  A    between atoms: C_7  and  C_8
REMARK    5  A    between atoms: C_7  and  C_14
REMARK                            x       y       z     vdW  Elec       q    Type
REMARK                         _______ _______ _______ _____ _____    ______ ____
ROOT
ATOM      1  C   UNL     1       5.805  -1.496  -1.976  0.00  0.00    +0.000 C 
ENDROOT
BRANCH   1   2
ATOM      2  C   UNL     1       5.422  -1.059  -3.382  0.00  0.00    +0.000 A 
ATOM      3  C   UNL     1       5.609   0.267  -3.812  0.00  0.00    +0.000 A 
ATOM      4  C   UNL     1       5.245   0.681  -5.086  0.00  0.00    +0.000 A 
ATOM      5  C   UNL     1       4.728  -0.241  -5.982  0.00  0.00    +0.000 A 
ATOM      6  C   UNL     1       4.553  -1.569  -5.592  0.00  0.00    +0.000 A 
ATOM      7  C   UNL     1       4.898  -1.981  -4.300  0.00  0.00    +0.000 A 
ENDBRANCH   1   2
BRANCH   1   8
ATOM      8  C   UNL     1       7.318  -1.371  -1.738  0.00  0.00    +0.000 A 
ATOM      9  C   UNL     1       8.145  -2.493  -1.607  0.00  0.00    +0.000 A 
ATOM     10  C   UNL     1       9.491  -2.329  -1.254  0.00  0.00    +0.000 A 
ATOM     11  C   UNL     1      10.050  -1.055  -1.135  0.00  0.00    +0.000 A 
ATOM     12  C   UNL     1       9.258   0.066  -1.317  0.00  0.00    +0.000 A 
ATOM     13  C   UNL     1       7.907  -0.097  -1.583  0.00  0.00    +0.000 A 
ENDBRANCH   1   8
BRANCH   1  14
ATOM     14  S   UNL     1       4.950  -0.523  -0.644  0.00  0.00    +0.000 S 
ATOM     15  O   UNL     1       5.258  -1.193   0.664  0.00  0.00    +0.000 OA
BRANCH  14  16
ATOM     16  C   UNL     1       3.188  -0.768  -0.996  0.00  0.00    +0.000 C 
BRANCH  16  18
ATOM     17  N   UNL     1       1.020  -0.007  -0.078  0.00  0.00    +0.000 N 
ATOM     18  C   UNL     1       2.378   0.074  -0.008  0.00  0.00    +0.000 C 
ATOM     19  O   UNL     1       2.853   0.850   0.826  0.00  0.00    +0.000 OA
ATOM     20  H   UNL     1       0.512   0.559   0.594  0.00  0.00    +0.000 HD
ATOM     21  H   UNL     1       0.496  -0.561  -0.738  0.00  0.00    +0.000 HD
ENDBRANCH  16  18
ENDBRANCH  14  16
ENDBRANCH   1  14
TORSDOF 5
