REMARK  Name = Moexipril
REMARK  17 active torsions:
REMARK  status: ('A' for Active; 'I' for Inactive)
REMARK    1  A    between atoms: C_1  and  C_2
REMARK    2  A    between atoms: C_2  and  O_3
REMARK    3  A    between atoms: O_3  and  C_4
REMARK    4  A    between atoms: C_4  and  C_6
REMARK    5  A    between atoms: C_6  and  C_7
REMARK    6  A    between atoms: C_6  and  N_15
REMARK    7  A    between atoms: C_7  and  C_8
REMARK    8  A    between atoms: C_8  and  C_9
REMARK    9  A    between atoms: N_15  and  CA_16
REMARK   10  A    between atoms: CA_16  and  CB_17
REMARK   11  A    between atoms: CA_16  and  C_18
REMARK   12  A    between atoms: C_24  and  O_25
REMARK   13  A    between atoms: O_25  and  C_26
REMARK   14  A    between atoms: C_27  and  O_28
REMARK   15  A    between atoms: O_28  and  C_29
REMARK   16  A    between atoms: C_33  and  C_34
REMARK   17  A    between atoms: C_34  and  O_35
REMARK                            x       y       z     vdW  Elec       q    Type
REMARK                         _______ _______ _______ _____ _____    ______ ____
ROOT
ATOM      1  C   ALA A   1       8.447   3.642  -2.757  0.00  0.00    +0.000 C 
ATOM      2  O   ALA A   1       9.064   2.778  -2.127  0.00  0.00    +0.000 OA
ATOM      3  N   UNK A   2       9.132   4.579  -3.558  0.00  0.00    +0.000 N 
ATOM      4  C   UNK A   2      10.593   4.635  -3.368  0.00  0.00    +0.000 C 
ATOM      5  C   UNK A   2      11.173   5.899  -3.984  0.00  0.00    +0.000 A 
ATOM      6  C   UNK A   2      12.192   5.900  -4.935  0.00  0.00    +0.000 A 
ATOM      7  C   UNK A   2      12.531   7.097  -5.602  0.00  0.00    +0.000 A 
ATOM      8  C   UNK A   2      11.796   8.282  -5.367  0.00  0.00    +0.000 A 
ATOM      9  C   UNK A   2      10.804   8.292  -4.400  0.00  0.00    +0.000 A 
ATOM     10  C   UNK A   2      10.472   7.107  -3.756  0.00  0.00    +0.000 A 
ATOM     11  C   UNK A   2       9.093   6.972  -3.171  0.00  0.00    +0.000 C 
ATOM     12  C   UNK A   2       8.499   5.834  -4.045  0.00  0.00    +0.000 C 
ENDROOT
BRANCH   1  13
ATOM     13  CA  ALA A   1       6.889   3.713  -2.723  0.00  0.00    +0.000 C 
ATOM     14  CB  ALA A   1       6.451   5.018  -2.145  0.00  0.00    +0.000 C 
BRANCH  13  15
ATOM     15  N   ALA A   1       6.328   2.692  -1.804  0.00  0.00    +0.000 NA
ATOM     16  H   ALA A   1       6.692   1.803  -2.155  0.00  0.00    +0.000 HD
BRANCH  15  17
ATOM     17  C   UNK A   0       4.835   2.618  -1.687  0.00  0.00    +0.000 C 
BRANCH  17  18
ATOM     18  C   UNK A   0       4.073   3.795  -0.940  0.00  0.00    +0.000 C 
ATOM     19  O   UNK A   0       2.862   3.908  -0.986  0.00  0.00    +0.000 OA
BRANCH  18  20
ATOM     20  O   UNK A   0       4.869   4.696  -0.274  0.00  0.00    +0.000 OA
BRANCH  20  22
ATOM     21  C   UNK A   0       5.534   7.132  -0.252  0.00  0.00    +0.000 C 
ATOM     22  C   UNK A   0       4.401   6.077  -0.182  0.00  0.00    +0.000 C 
ENDBRANCH  20  22
ENDBRANCH  18  20
ENDBRANCH  17  18
BRANCH  17  23
ATOM     23  C   UNK A   0       4.403   1.330  -0.962  0.00  0.00    +0.000 C 
BRANCH  23  24
ATOM     24  C   UNK A   0       5.403   0.171  -1.061  0.00  0.00    +0.000 C 
BRANCH  24  25
ATOM     25  C   UNK A   0       4.929  -0.986  -0.240  0.00  0.00    +0.000 A 
ATOM     26  C   UNK A   0       3.796  -1.701  -0.636  0.00  0.00    +0.000 A 
ATOM     27  C   UNK A   0       3.210  -2.597   0.247  0.00  0.00    +0.000 A 
ATOM     28  C   UNK A   0       3.813  -2.859   1.477  0.00  0.00    +0.000 A 
ATOM     29  C   UNK A   0       4.985  -2.199   1.845  0.00  0.00    +0.000 A 
ATOM     30  C   UNK A   0       5.539  -1.255   0.991  0.00  0.00    +0.000 A 
ENDBRANCH  24  25
ENDBRANCH  23  24
ENDBRANCH  17  23
ENDBRANCH  15  17
ENDBRANCH  13  15
ENDBRANCH   1  13
BRANCH   7  31
ATOM     31  O   UNK A   2      13.580   6.965  -6.484  0.00  0.00    +0.000 OA
ATOM     32  C   UNK A   2      14.155   8.187  -6.948  0.00  0.00    +0.000 C 
ENDBRANCH   7  31
BRANCH   8  33
ATOM     33  O   UNK A   2      12.020   9.356  -6.181  0.00  0.00    +0.000 OA
ATOM     34  C   UNK A   2      11.286  10.551  -5.982  0.00  0.00    +0.000 C 
ENDBRANCH   8  33
BRANCH  12  35
ATOM     35  C   UNK A   2       8.325   6.081  -5.563  0.00  0.00    +0.000 C 
ATOM     36  O   UNK A   2       7.273   6.527  -6.012  0.00  0.00    +0.000 OA
BRANCH  35  37
ATOM     37  O   UNK A   2       9.335   5.787  -6.389  0.00  0.00    +0.000 OA
ATOM     38  H   UNK A   2      10.151   5.500  -5.954  0.00  0.00    +0.000 HD
ENDBRANCH  35  37
ENDBRANCH  12  35
TORSDOF 13
