REMARK  Name = Molindone
REMARK  5 active torsions:
REMARK  status: ('A' for Active; 'I' for Inactive)
REMARK    1  A    between atoms: C_1  and  C_2
REMARK    2  A    between atoms: C_2  and  C_3
REMARK    3  A    between atoms: C_4  and  C_5
REMARK    4  A    between atoms: C_11  and  C_12
REMARK    5  A    between atoms: C_12  and  N_13
REMARK                            x       y       z     vdW  Elec       q    Type
REMARK                         _______ _______ _______ _____ _____    ______ ____
ROOT
ATOM      1  C   UNL     1       3.083  -0.596  -1.123  0.00  0.00    +0.000 A 
ATOM      2  C   UNL     1       3.646  -0.172  -2.308  0.00  0.00    +0.000 A 
ATOM      3  C   UNL     1       4.040   1.170  -2.717  0.00  0.00    +0.000 C 
ATOM      4  N   UNL     1       3.788  -1.237  -3.144  0.00  0.00    +0.000 N 
ATOM      5  C   UNL     1       3.347  -2.307  -2.457  0.00  0.00    +0.000 A 
ATOM      6  C   UNL     1       3.005  -1.975  -1.170  0.00  0.00    +0.000 A 
ATOM      7  C   UNL     1       2.510  -2.864  -0.114  0.00  0.00    +0.000 C 
ATOM      8  O   UNL     1       2.195  -2.525   1.007  0.00  0.00    +0.000 OA
ATOM      9  C   UNL     1       2.265  -4.254  -0.540  0.00  0.00    +0.000 C 
ATOM     10  C   UNL     1       2.627  -4.415  -1.980  0.00  0.00    +0.000 C 
ATOM     11  C   UNL     1       3.252  -3.593  -3.056  0.00  0.00    +0.000 C 
ATOM     12  H   UNL     1       4.125  -1.250  -4.102  0.00  0.00    +0.000 HD
ENDROOT
BRANCH   1  14
ATOM     13  C   UNL     1       1.016   0.077  -0.008  0.00  0.00    +0.000 C 
ATOM     14  C   UNL     1       2.544   0.149   0.026  0.00  0.00    +0.000 C 
ENDBRANCH   1  14
BRANCH   9  15
ATOM     15  C   UNL     1       3.020  -5.326   0.277  0.00  0.00    +0.000 C 
BRANCH  15  16
ATOM     16  N   UNL     1       2.991  -6.748  -0.208  0.00  0.00    +0.000 NA
ATOM     17  C   UNL     1       3.583  -7.070  -1.546  0.00  0.00    +0.000 C 
ATOM     18  C   UNL     1       2.664  -6.916  -2.816  0.00  0.00    +0.000 C 
ATOM     19  O   UNL     1       1.287  -7.256  -2.601  0.00  0.00    +0.000 OA
ATOM     20  C   UNL     1       0.743  -6.906  -1.310  0.00  0.00    +0.000 C 
ATOM     21  C   UNL     1       1.655  -7.354  -0.167  0.00  0.00    +0.000 C 
ENDBRANCH  15  16
ENDBRANCH   9  15
TORSDOF 3
