REMARK  Name = Molsidomine
REMARK  6 active torsions:
REMARK  status: ('A' for Active; 'I' for Inactive)
REMARK    1  A    between atoms: C_1  and  C_2
REMARK    2  A    between atoms: C_2  and  O_3
REMARK    3  A    between atoms: O_3  and  C_4
REMARK    4  A    between atoms: C_4  and  N_6
REMARK    5  A    between atoms: N_6  and  C_7
REMARK    6  A    between atoms: N_9  and  N_12
REMARK                            x       y       z     vdW  Elec       q    Type
REMARK                         _______ _______ _______ _____ _____    ______ ____
ROOT
ATOM      1  C   UNL     1       6.325   1.784  -2.696  0.00  0.00    +0.000 A 
ATOM      2  C   UNL     1       6.956   2.942  -3.116  0.00  0.00    +0.000 A 
ATOM      3  N   UNL     1       8.285   2.604  -3.300  0.00  0.00    +0.000 N 
ATOM      4  N   UNL     1       8.534   1.326  -3.083  0.00  0.00    +0.000 NA
ATOM      5  O   UNL     1       7.288   0.787  -2.661  0.00  0.00    +0.000 OA
ENDROOT
BRANCH   3   6
ATOM      6  N   UNL     1       9.355   3.528  -3.601  0.00  0.00    +0.000 N 
ATOM      7  C   UNL     1      10.273   3.342  -4.716  0.00  0.00    +0.000 C 
ATOM      8  C   UNL     1      11.726   3.572  -4.266  0.00  0.00    +0.000 C 
ATOM      9  O   UNL     1      11.858   4.838  -3.605  0.00  0.00    +0.000 OA
ATOM     10  C   UNL     1      11.003   4.902  -2.456  0.00  0.00    +0.000 C 
ATOM     11  C   UNL     1       9.525   4.772  -2.873  0.00  0.00    +0.000 C 
ENDBRANCH   3   6
BRANCH   1  12
ATOM     12  N   UNL     1       4.990   1.661  -2.433  0.00  0.00    +0.000 NA
BRANCH  12  13
ATOM     13  C   UNL     1       4.611   0.902  -1.386  0.00  0.00    +0.000 C 
ATOM     14  O   UNL     1       5.338   0.366  -0.549  0.00  0.00    +0.000 OA
BRANCH  13  15
ATOM     15  O   UNL     1       3.225   0.833  -1.285  0.00  0.00    +0.000 OA
BRANCH  15  17
ATOM     16  C   UNL     1       1.163   0.104  -0.098  0.00  0.00    +0.000 C 
ATOM     17  C   UNL     1       2.696   0.121  -0.131  0.00  0.00    +0.000 C 
ENDBRANCH  15  17
ENDBRANCH  13  15
ENDBRANCH  12  13
ENDBRANCH   1  12
TORSDOF 5
