REMARK  Name = Mometasone furoate
REMARK  9 active torsions:
REMARK  status: ('A' for Active; 'I' for Inactive)
REMARK    1  A    between atoms: C_4  and  C_5
REMARK    2  A    between atoms: C_6  and  O_7
REMARK    3  A    between atoms: C_6  and  C_15
REMARK    4  A    between atoms: O_7  and  C_8
REMARK    5  A    between atoms: C_8  and  C_10
REMARK    6  A    between atoms: C_15  and  C_17
REMARK    7  A    between atoms: C_19  and  C_20
REMARK    8  A    between atoms: C_22  and  O_23
REMARK    9  A    between atoms: C_36  and  C_37
REMARK                            x       y       z     vdW  Elec       q    Type
REMARK                         _______ _______ _______ _____ _____    ______ ____
ROOT
ATOM      1  C   UNL     1       1.645  -0.011   0.073  0.00  0.00    +0.000 C 
ATOM      2  C   UNL     1       2.065  -0.057   1.473  0.00  0.00    +0.000 C 
ATOM      3  C   UNL     1       3.231  -0.525   0.635  0.00  0.00    +0.000 C 
ATOM      4  C   UNL     1       4.389  -1.090   2.037  0.00  0.00    +0.000 C 
ATOM      5  C   UNL     1       2.734  -0.771  -1.350  0.00  0.00    +0.000 C 
ATOM      6  C   UNL     1       2.527  -1.550  -0.304  0.00  0.00    +0.000 C 
ATOM      7  C   UNL     1       1.903  -2.798   0.155  0.00  0.00    +0.000 C 
ATOM      8  C   UNL     1       4.338  -1.541  -0.621  0.00  0.00    +0.000 C 
ATOM      9  C   UNL     1       4.883   0.079  -1.243  0.00  0.00    +0.000 C 
ATOM     10  C   UNL     1       4.021   1.565  -0.915  0.00  0.00    +0.000 C 
ATOM     11 CL   UNL     1       3.718   1.855   0.952  0.00  0.00    +0.000 Cl
ATOM     12  C   UNL     1       2.298   1.482  -0.870  0.00  0.00    +0.000 C 
ATOM     13  C   UNL     1       1.728   2.861  -0.237  0.00  0.00    +0.000 C 
ATOM     14  C   UNL     1       2.599   4.017  -0.779  0.00  0.00    +0.000 C 
ATOM     15  C   UNL     1       4.069   3.932  -0.332  0.00  0.00    +0.000 C 
ATOM     16  C   UNL     1       4.783   4.788   0.419  0.00  0.00    +0.000 C 
ATOM     17  C   UNL     1       4.660   5.837  -0.507  0.00  0.00    +0.000 C 
ATOM     18  O   UNL     1       4.113   6.846  -0.121  0.00  0.00    +0.000 OA
ATOM     19  C   UNL     1       5.597   5.409  -1.699  0.00  0.00    +0.000 C 
ATOM     20  C   UNL     1       5.817   3.986  -1.820  0.00  0.00    +0.000 C 
ATOM     21  C   UNL     1       5.040   2.883  -0.804  0.00  0.00    +0.000 C 
ATOM     22  C   UNL     1       6.021   2.500   0.655  0.00  0.00    +0.000 C 
ENDROOT
BRANCH   5  23
ATOM     23  C   UNL     1       1.396  -0.832  -2.623  0.00  0.00    +0.000 C 
ATOM     24  O   UNL     1       1.710  -0.793  -3.833  0.00  0.00    +0.000 OA
BRANCH  23  25
ATOM     25  C   UNL     1      -0.117  -0.796  -2.534  0.00  0.00    +0.000 C 
ATOM     26 CL   UNL     1      -0.910  -1.058  -4.306  0.00  0.00    +0.000 Cl
ENDBRANCH  23  25
ENDBRANCH   5  23
BRANCH   9  27
ATOM     27  O   UNL     1       6.242   0.218  -0.859  0.00  0.00    +0.000 OA
ATOM     28  H   UNL     1       6.303  -0.121   0.052  0.00  0.00    +0.000 HD
ENDBRANCH   9  27
BRANCH   5  29
ATOM     29  O   UNL     1       3.078  -2.041  -2.489  0.00  0.00    +0.000 OA
BRANCH  29  30
ATOM     30  C   UNL     1       3.667  -1.998  -3.828  0.00  0.00    +0.000 C 
ATOM     31  O   UNL     1       3.190  -2.416  -4.879  0.00  0.00    +0.000 OA
BRANCH  30  32
ATOM     32  C   UNL     1       5.051  -2.038  -3.602  0.00  0.00    +0.000 A 
ATOM     33  C   UNL     1       5.531  -2.852  -2.619  0.00  0.00    +0.000 A 
ATOM     34  C   UNL     1       6.670  -2.189  -2.159  0.00  0.00    +0.000 A 
ATOM     35  C   UNL     1       7.002  -1.292  -3.154  0.00  0.00    +0.000 A 
ATOM     36  O   UNL     1       5.969  -1.153  -4.042  0.00  0.00    +0.000 OA
ENDBRANCH  30  32
ENDBRANCH  29  30
ENDBRANCH   5  29
TORSDOF 6
