REMARK  Name = Monomethyl fumarate
REMARK  5 active torsions:
REMARK  status: ('A' for Active; 'I' for Inactive)
REMARK    1  A    between atoms: C_1  and  O_2
REMARK    2  A    between atoms: O_2  and  C_3
REMARK    3  A    between atoms: C_3  and  C_5
REMARK    4  A    between atoms: C_6  and  C_7
REMARK    5  A    between atoms: C_7  and  O_8
REMARK                            x       y       z     vdW  Elec       q    Type
REMARK                         _______ _______ _______ _____ _____    ______ ____
ROOT
ATOM      1  C   UNL     1       4.603   0.688  -0.870  0.00  0.00    +0.000 C 
ATOM      2  C   UNL     1       5.359   1.424  -1.701  0.00  0.00    +0.000 C 
ENDROOT
BRANCH   1   3
ATOM      3  C   UNL     1       3.122   0.764  -0.957  0.00  0.00    +0.000 C 
ATOM      4  O   UNL     1       2.510   1.465  -1.748  0.00  0.00    +0.000 OA
BRANCH   3   6
ATOM      5  C   UNL     1       1.135  -0.066  -0.019  0.00  0.00    +0.000 C 
ATOM      6  O   UNL     1       2.572  -0.059  -0.027  0.00  0.00    +0.000 OA
ENDBRANCH   3   6
ENDBRANCH   1   3
BRANCH   2   7
ATOM      7  C   UNL     1       6.833   1.493  -1.779  0.00  0.00    +0.000 C 
ATOM      8  O   UNL     1       7.388   2.215  -2.594  0.00  0.00    +0.000 OA
BRANCH   7   9
ATOM      9  O   UNL     1       7.525   0.729  -0.917  0.00  0.00    +0.000 OA
ATOM     10  H   UNL     1       7.027   0.178  -0.295  0.00  0.00    +0.000 HD
ENDBRANCH   7   9
ENDBRANCH   2   7
TORSDOF 4
