REMARK  Name = Monopotassium phosphate
REMARK  2 active torsions:
REMARK  status: ('A' for Active; 'I' for Inactive)
REMARK    1  A    between atoms: O_2  and  P_3
REMARK    2  A    between atoms: P_3  and  O_4
REMARK                            x       y       z     vdW  Elec       q    Type
REMARK                         _______ _______ _______ _____ _____    ______ ____
ROOT
ATOM      1  K   UNL     1       2.579   3.049  -0.586  0.00  0.00    +0.000 K 
ENDROOT
TORSDOF 0
REMARK  Name = Monopotassium phosphate
REMARK  2 active torsions:
REMARK  status: ('A' for Active; 'I' for Inactive)
REMARK    1  A    between atoms: O_2  and  P_3
REMARK    2  A    between atoms: P_3  and  O_4
REMARK                            x       y       z     vdW  Elec       q    Type
REMARK                         _______ _______ _______ _____ _____    ______ ____
ROOT
ATOM      1  P   UNL     2       2.701  -0.070   0.065  0.00  0.00    +0.000 P 
ATOM      2  O   UNL     2       2.536  -1.219   1.047  0.00  0.00    +0.000 OA
ATOM      3  O   UNL     2       4.249  -0.070   0.065  0.00  0.00    +0.000 OA
ENDROOT
BRANCH   1   4
ATOM      4  O   UNL     2       0.971  -0.070   0.065  0.00  0.00    +0.000 OA
ATOM      5  H   UNL     2       0.574   0.367  -0.698  0.00  0.00    +0.000 HD
ENDBRANCH   1   4
BRANCH   1   6
ATOM      6  O   UNL     2       2.531   1.219   1.051  0.00  0.00    +0.000 OA
ATOM      7  H   UNL     2       2.488   0.689   1.875  0.00  0.00    +0.000 HD
ENDBRANCH   1   6
TORSDOF 2
