REMARK  Name = Monobenzone
REMARK  4 active torsions:
REMARK  status: ('A' for Active; 'I' for Inactive)
REMARK    1  A    between atoms: O_1  and  C_2
REMARK    2  A    between atoms: C_5  and  O_6
REMARK    3  A    between atoms: O_6  and  C_7
REMARK    4  A    between atoms: C_7  and  C_8
REMARK                            x       y       z     vdW  Elec       q    Type
REMARK                         _______ _______ _______ _____ _____    ______ ____
ROOT
ATOM      1  C   UNL     1       0.905  -0.023   0.013  0.00  0.00    +0.000 A 
ATOM      2  C   UNL     1       0.228   1.192   0.012  0.00  0.00    +0.000 A 
ATOM      3  C   UNL     1      -1.168   1.192  -0.005  0.00  0.00    +0.000 A 
ATOM      4  C   UNL     1      -1.881  -0.011  -0.021  0.00  0.00    +0.000 A 
ATOM      5  C   UNL     1      -1.186  -1.221  -0.005  0.00  0.00    +0.000 A 
ATOM      6  C   UNL     1       0.209  -1.224   0.012  0.00  0.00    +0.000 A 
ENDROOT
BRANCH   1   7
ATOM      7  O   UNL     1       2.266  -0.081   0.013  0.00  0.00    +0.000 OA
ATOM      8  H   UNL     1       2.614   0.825  -0.016  0.00  0.00    +0.000 HD
ENDBRANCH   1   7
BRANCH   4   9
ATOM      9  O   UNL     1      -3.239   0.123  -0.059  0.00  0.00    +0.000 OA
BRANCH   9  10
ATOM     10  C   UNL     1      -4.010  -1.080  -0.090  0.00  0.00    +0.000 C 
BRANCH  10  11
ATOM     11  C   UNL     1      -5.492  -0.774  -0.084  0.00  0.00    +0.000 A 
ATOM     12  C   UNL     1      -5.975   0.542  -0.078  0.00  0.00    +0.000 A 
ATOM     13  C   UNL     1      -7.340   0.795   0.051  0.00  0.00    +0.000 A 
ATOM     14  C   UNL     1      -8.242  -0.262   0.115  0.00  0.00    +0.000 A 
ATOM     15  C   UNL     1      -7.781  -1.577   0.062  0.00  0.00    +0.000 A 
ATOM     16  C   UNL     1      -6.412  -1.832  -0.031  0.00  0.00    +0.000 A 
ENDBRANCH  10  11
ENDBRANCH   9  10
ENDBRANCH   4   9
TORSDOF 4
