REMARK  Name = Montelukast
REMARK  16 active torsions:
REMARK  status: ('A' for Active; 'I' for Inactive)
REMARK    1  A    between atoms: O_1  and  C_2
REMARK    2  A    between atoms: C_2  and  C_4
REMARK    3  A    between atoms: C_4  and  C_5
REMARK    4  A    between atoms: C_5  and  C_8
REMARK    5  A    between atoms: C_8  and  S_9
REMARK    6  A    between atoms: S_9  and  C_10
REMARK    7  A    between atoms: C_10  and  C_11
REMARK    8  A    between atoms: C_10  and  C_23
REMARK    9  A    between atoms: C_11  and  C_12
REMARK   10  A    between atoms: C_12  and  C_13
REMARK   11  A    between atoms: C_18  and  C_19
REMARK   12  A    between atoms: C_19  and  O_20
REMARK   13  A    between atoms: C_19  and  C_21
REMARK   14  A    between atoms: C_19  and  C_22
REMARK   15  A    between atoms: C_27  and  C_28
REMARK   16  A    between atoms: C_29  and  C_30
REMARK                            x       y       z     vdW  Elec       q    Type
REMARK                         _______ _______ _______ _____ _____    ______ ____
ROOT
ATOM      1  C   UNL     1       6.255  -0.712   3.799  0.00  0.00    +0.000 C 
ENDROOT
BRANCH   1   2
ATOM      2  C   UNL     1       7.617  -0.400   4.375  0.00  0.00    +0.000 A 
ATOM      3  C   UNL     1       8.538  -1.394   4.674  0.00  0.00    +0.000 A 
ATOM      4  C   UNL     1       9.729  -1.048   5.295  0.00  0.00    +0.000 A 
ATOM      5  C   UNL     1      10.070   0.308   5.497  0.00  0.00    +0.000 A 
ATOM      6  C   UNL     1       9.209   1.354   5.109  0.00  0.00    +0.000 A 
ATOM      7  C   UNL     1       7.992   0.958   4.533  0.00  0.00    +0.000 A 
BRANCH   6   8
ATOM      8  C   UNL     1       9.518   2.807   5.397  0.00  0.00    +0.000 C 
ATOM      9  C   UNL     1       8.693   3.842   5.093  0.00  0.00    +0.000 C 
BRANCH   9  10
ATOM     10  C   UNL     1       8.713   5.300   5.373  0.00  0.00    +0.000 A 
ATOM     11  N   UNL     1       8.727   6.132   4.326  0.00  0.00    +0.000 NA
ATOM     12  C   UNL     1       8.846   7.445   4.626  0.00  0.00    +0.000 A 
ATOM     13  C   UNL     1       8.095   8.070   5.588  0.00  0.00    +0.000 A 
ATOM     14  C   UNL     1       8.144   9.499   5.720  0.00  0.00    +0.000 A 
ATOM     15  C   UNL     1       9.345  10.127   5.387  0.00  0.00    +0.000 A 
ATOM     16  C   UNL     1      10.355   9.328   4.870  0.00  0.00    +0.000 A 
ATOM     17 CL   UNL     1      11.958   9.907   4.687  0.00  0.00    +0.000 Cl
ATOM     18  C   UNL     1      10.079   8.019   4.478  0.00  0.00    +0.000 A 
ATOM     19  C   UNL     1       7.855   7.136   6.615  0.00  0.00    +0.000 A 
ATOM     20  C   UNL     1       8.576   5.883   6.618  0.00  0.00    +0.000 A 
ENDBRANCH   9  10
ENDBRANCH   6   8
ENDBRANCH   1   2
BRANCH   1  21
ATOM     21  S   UNL     1       5.410  -2.280   4.334  0.00  0.00    +0.000 S 
BRANCH  21  22
ATOM     22  C   UNL     1       5.692  -2.475   6.049  0.00  0.00    +0.000 C 
BRANCH  22  23
ATOM     23  C   UNL     1       4.758  -3.491   6.719  0.00  0.00    +0.000 C 
ATOM     24  C   UNL     1       4.302  -4.829   6.121  0.00  0.00    +0.000 C 
ATOM     25  C   UNL     1       3.311  -3.712   6.255  0.00  0.00    +0.000 C 
BRANCH  23  26
ATOM     26  C   UNL     1       5.012  -3.435   8.208  0.00  0.00    +0.000 C 
BRANCH  26  27
ATOM     27  C   UNL     1       4.418  -2.176   8.799  0.00  0.00    +0.000 C 
ATOM     28  O   UNL     1       3.675  -1.386   8.184  0.00  0.00    +0.000 OA
BRANCH  27  29
ATOM     29  O   UNL     1       4.783  -1.939  10.066  0.00  0.00    +0.000 OA
ATOM     30  H   UNL     1       5.384  -2.616  10.431  0.00  0.00    +0.000 HD
ENDBRANCH  27  29
ENDBRANCH  26  27
ENDBRANCH  23  26
ENDBRANCH  22  23
ENDBRANCH  21  22
ENDBRANCH   1  21
BRANCH   1  31
ATOM     31  C   UNL     1       6.394  -0.693   2.255  0.00  0.00    +0.000 C 
BRANCH  31  32
ATOM     32  C   UNL     1       6.179  -2.072   1.619  0.00  0.00    +0.000 C 
BRANCH  32  33
ATOM     33  C   UNL     1       5.935  -1.975   0.160  0.00  0.00    +0.000 A 
ATOM     34  C   UNL     1       7.057  -2.307  -0.611  0.00  0.00    +0.000 A 
ATOM     35  C   UNL     1       7.068  -2.056  -1.964  0.00  0.00    +0.000 A 
ATOM     36  C   UNL     1       5.921  -1.562  -2.566  0.00  0.00    +0.000 A 
ATOM     37  C   UNL     1       4.767  -1.310  -1.812  0.00  0.00    +0.000 A 
ATOM     38  C   UNL     1       4.724  -1.522  -0.419  0.00  0.00    +0.000 A 
BRANCH  38  39
ATOM     39  C   UNL     1       3.384  -1.283   0.324  0.00  0.00    +0.000 C 
ATOM     40  C   UNL     1       2.286  -2.163  -0.289  0.00  0.00    +0.000 C 
ATOM     41  C   UNL     1       3.279  -1.580   1.819  0.00  0.00    +0.000 C 
BRANCH  39  42
ATOM     42  O   UNL     1       3.012   0.095   0.204  0.00  0.00    +0.000 OA
ATOM     43  H   UNL     1       3.006   0.328  -0.735  0.00  0.00    +0.000 HD
ENDBRANCH  39  42
ENDBRANCH  38  39
ENDBRANCH  32  33
ENDBRANCH  31  32
ENDBRANCH   1  31
TORSDOF 14
