REMARK  Name = Moricizine
REMARK  7 active torsions:
REMARK  status: ('A' for Active; 'I' for Inactive)
REMARK    1  A    between atoms: C_1  and  C_2
REMARK    2  A    between atoms: C_2  and  O_3
REMARK    3  A    between atoms: O_3  and  C_4
REMARK    4  A    between atoms: N_6  and  C_7
REMARK    5  A    between atoms: C_19  and  C_21
REMARK    6  A    between atoms: C_21  and  C_22
REMARK    7  A    between atoms: C_22  and  N_23
REMARK                            x       y       z     vdW  Elec       q    Type
REMARK                         _______ _______ _______ _____ _____    ______ ____
ROOT
ATOM      1  C   UNL     1       6.318   2.567   1.991  0.00  0.00    +0.000 A 
ATOM      2  C   UNL     1       7.212   2.484   0.917  0.00  0.00    +0.000 A 
ATOM      3  C   UNL     1       8.595   2.693   1.076  0.00  0.00    +0.000 A 
ATOM      4  C   UNL     1       9.082   3.008   2.350  0.00  0.00    +0.000 A 
ATOM      5  S   UNL     1      10.824   3.264   2.622  0.00  0.00    +0.000 S 
ATOM      6  C   UNL     1      11.194   3.997   1.041  0.00  0.00    +0.000 A 
ATOM      7  C   UNL     1      12.191   4.978   0.970  0.00  0.00    +0.000 A 
ATOM      8  C   UNL     1      12.499   5.591  -0.245  0.00  0.00    +0.000 A 
ATOM      9  C   UNL     1      11.799   5.240  -1.390  0.00  0.00    +0.000 A 
ATOM     10  C   UNL     1      10.792   4.281  -1.316  0.00  0.00    +0.000 A 
ATOM     11  C   UNL     1      10.501   3.609  -0.117  0.00  0.00    +0.000 A 
ATOM     12  N   UNL     1       9.465   2.621  -0.067  0.00  0.00    +0.000 N 
ATOM     13  C   UNL     1       9.316   1.567  -0.982  0.00  0.00    +0.000 C 
ATOM     14  O   UNL     1       8.439   0.703  -0.889  0.00  0.00    +0.000 OA
ATOM     15  C   UNL     1       8.198   3.099   3.432  0.00  0.00    +0.000 A 
ATOM     16  C   UNL     1       6.817   2.906   3.251  0.00  0.00    +0.000 A 
ENDROOT
BRANCH   1  19
ATOM     17  C   UNL     1       4.477   1.287   0.985  0.00  0.00    +0.000 C 
ATOM     18  O   UNL     1       5.193   0.487   0.385  0.00  0.00    +0.000 OA
ATOM     19  N   UNL     1       4.935   2.314   1.794  0.00  0.00    +0.000 N 
ATOM     20  H   UNL     1       4.257   2.743   2.410  0.00  0.00    +0.000 HD
BRANCH  17  21
ATOM     21  O   UNL     1       3.109   1.206   0.958  0.00  0.00    +0.000 OA
BRANCH  21  23
ATOM     22  C   UNL     1       1.107   0.076   0.111  0.00  0.00    +0.000 C 
ATOM     23  C   UNL     1       2.627   0.113   0.138  0.00  0.00    +0.000 C 
ENDBRANCH  21  23
ENDBRANCH  17  21
ENDBRANCH   1  19
BRANCH  13  24
ATOM     24  C   UNL     1      10.349   1.443  -2.086  0.00  0.00    +0.000 C 
BRANCH  24  25
ATOM     25  C   UNL     1      10.075   0.226  -2.949  0.00  0.00    +0.000 C 
BRANCH  25  26
ATOM     26  N   UNL     1      10.987   0.177  -4.114  0.00  0.00    +0.000 NA
ATOM     27  C   UNL     1      10.617   1.181  -5.147  0.00  0.00    +0.000 C 
ATOM     28  C   UNL     1       9.240   0.915  -5.780  0.00  0.00    +0.000 C 
ATOM     29  O   UNL     1       9.180  -0.401  -6.348  0.00  0.00    +0.000 OA
ATOM     30  C   UNL     1       9.492  -1.400  -5.364  0.00  0.00    +0.000 C 
ATOM     31  C   UNL     1      10.881  -1.159  -4.749  0.00  0.00    +0.000 C 
ENDBRANCH  25  26
ENDBRANCH  24  25
ENDBRANCH  13  24
TORSDOF 6
