REMARK  Name = Morphine
REMARK  3 active torsions:
REMARK  status: ('A' for Active; 'I' for Inactive)
REMARK    1  A    between atoms: C_5  and  O_6
REMARK    2  A    between atoms: N_14  and  C_15
REMARK    3  A    between atoms: C_23  and  O_24
REMARK                            x       y       z     vdW  Elec       q    Type
REMARK                         _______ _______ _______ _____ _____    ______ ____
ROOT
ATOM      1  C   UNL     1       2.239  -0.462   0.181  0.00  0.00    +0.000 C 
ATOM      2  O   UNL     1       3.318  -1.324   0.261  0.00  0.00    +0.000 OA
ATOM      3  C   UNL     1       3.731  -0.860   1.492  0.00  0.00    +0.000 A 
ATOM      4  C   UNL     1       4.213  -1.616   2.498  0.00  0.00    +0.000 A 
ATOM      5  C   UNL     1       4.762  -0.866   3.527  0.00  0.00    +0.000 A 
ATOM      6  C   UNL     1       4.672   0.641   3.557  0.00  0.00    +0.000 A 
ATOM      7  C   UNL     1       3.949   1.399   2.589  0.00  0.00    +0.000 A 
ATOM      8  C   UNL     1       3.557   0.537   1.628  0.00  0.00    +0.000 A 
ATOM      9  C   UNL     1       2.669   1.062   0.634  0.00  0.00    +0.000 C 
ATOM     10  C   UNL     1       3.598   2.001  -0.466  0.00  0.00    +0.000 C 
ATOM     11  C   UNL     1       2.744   2.834  -1.424  0.00  0.00    +0.000 C 
ATOM     12  N   UNL     1       2.049   3.786  -0.580  0.00  0.00    +0.000 NA
ATOM     13  C   UNL     1       0.926   4.372  -1.439  0.00  0.00    +0.000 C 
ATOM     14  C   UNL     1       1.969   3.348   0.940  0.00  0.00    +0.000 C 
ATOM     15  C   UNL     1       3.403   3.022   2.183  0.00  0.00    +0.000 C 
ATOM     16  C   UNL     1       1.515   1.978   1.323  0.00  0.00    +0.000 C 
ATOM     17  C   UNL     1       0.109   1.494   1.052  0.00  0.00    +0.000 C 
ATOM     18  C   UNL     1       0.259   0.314   0.572  0.00  0.00    +0.000 C 
ATOM     19  C   UNL     1       1.323   0.077  -0.791  0.00  0.00    +0.000 C 
ENDROOT
BRANCH   4  20
ATOM     20  O   UNL     1       4.110  -2.972   2.486  0.00  0.00    +0.000 OA
ATOM     21  H   UNL     1       3.553  -3.216   1.713  0.00  0.00    +0.000 HD
ENDBRANCH   4  20
BRANCH  19  22
ATOM     22  O   UNL     1       0.982  -0.798  -1.813  0.00  0.00    +0.000 OA
ATOM     23  H   UNL     1       1.119  -0.283  -2.636  0.00  0.00    +0.000 HD
ENDBRANCH  19  22
TORSDOF 2
