REMARK  Name = Morpholinylmercaptobenzothiazole
REMARK  2 active torsions:
REMARK  status: ('A' for Active; 'I' for Inactive)
REMARK    1  A    between atoms: N_3  and  S_7
REMARK    2  A    between atoms: S_7  and  C_8
REMARK                            x       y       z     vdW  Elec       q    Type
REMARK                         _______ _______ _______ _____ _____    ______ ____
ROOT
ATOM      1  C   UNL     1      -2.469   1.490  -2.496  0.00  0.00    +0.000 A 
ATOM      2  N   UNL     1      -3.590   1.412  -3.163  0.00  0.00    +0.000 NA
ATOM      3  C   UNL     1      -4.048   2.676  -3.459  0.00  0.00    +0.000 A 
ATOM      4  C   UNL     1      -5.245   2.959  -4.132  0.00  0.00    +0.000 A 
ATOM      5  C   UNL     1      -5.632   4.286  -4.318  0.00  0.00    +0.000 A 
ATOM      6  C   UNL     1      -4.835   5.326  -3.844  0.00  0.00    +0.000 A 
ATOM      7  C   UNL     1      -3.622   5.070  -3.197  0.00  0.00    +0.000 A 
ATOM      8  C   UNL     1      -3.241   3.729  -3.028  0.00  0.00    +0.000 A 
ATOM      9  S   UNL     1      -1.812   3.069  -2.345  0.00  0.00    +0.000 S 
ENDROOT
BRANCH   1  10
ATOM     10  S   UNL     1      -1.672  -0.002  -2.046  0.00  0.00    +0.000 S 
BRANCH  10  13
ATOM     11  C   UNL     1       0.782   1.165  -0.210  0.00  0.00    +0.000 C 
ATOM     12  C   UNL     1      -0.684   1.192   0.242  0.00  0.00    +0.000 C 
ATOM     13  N   UNL     1      -1.433   0.060  -0.366  0.00  0.00    +0.000 NA
ATOM     14  C   UNL     1      -0.770  -1.160   0.192  0.00  0.00    +0.000 C 
ATOM     15  C   UNL     1       0.713  -1.200  -0.228  0.00  0.00    +0.000 C 
ATOM     16  O   UNL     1       1.420  -0.039   0.242  0.00  0.00    +0.000 OA
ENDBRANCH  10  13
ENDBRANCH   1  10
TORSDOF 2
