REMARK  Name = Moxidectin
REMARK  13 active torsions:
REMARK  status: ('A' for Active; 'I' for Inactive)
REMARK    1  A    between atoms: C_9  and  C_10
REMARK    2  A    between atoms: C_12  and  C_13
REMARK    3  A    between atoms: N_25  and  O_26
REMARK    4  A    between atoms: O_26  and  C_27
REMARK    5  A    between atoms: C_28  and  C_29
REMARK    6  A    between atoms: C_30  and  C_32
REMARK    7  A    between atoms: C_32  and  C_33
REMARK    8  A    between atoms: C_34  and  C_35
REMARK    9  A    between atoms: C_35  and  C_36
REMARK   10  A    between atoms: C_35  and  C_37
REMARK   11  A    between atoms: C_45  and  C_46
REMARK   12  A    between atoms: C_47  and  O_48
REMARK   13  A    between atoms: C_49  and  O_50
REMARK                            x       y       z     vdW  Elec       q    Type
REMARK                         _______ _______ _______ _____ _____    ______ ____
ROOT
ATOM      1  C   UNL     1       2.216  -0.102  -0.101  0.00  0.00    +0.000 C 
ATOM      2  O   UNL     1       2.320   1.276   0.146  0.00  0.00    +0.000 OA
ATOM      3  C   UNL     1       3.653   1.544   0.180  0.00  0.00    +0.000 C 
ATOM      4  C   UNL     1       4.405   0.406   0.045  0.00  0.00    +0.000 C 
ATOM      5  C   UNL     1       5.666   0.471   0.102  0.00  0.00    +0.000 C 
ATOM      6  C   UNL     1       6.632   1.352   0.169  0.00  0.00    +0.000 C 
ATOM      7  C   UNL     1       7.929   1.205   0.256  0.00  0.00    +0.000 C 
ATOM      8  C   UNL     1       8.869   2.261   0.284  0.00  0.00    +0.000 C 
ATOM      9  C   UNL     1       8.612   3.169  -0.890  0.00  0.00    +0.000 C 
ATOM     10  C   UNL     1      10.279   1.900   0.559  0.00  0.00    +0.000 C 
ATOM     11  C   UNL     1      11.281   2.931   0.439  0.00  0.00    +0.000 C 
ATOM     12  C   UNL     1      10.759   4.283   0.568  0.00  0.00    +0.000 C 
ATOM     13  C   UNL     1      12.585   2.670   0.491  0.00  0.00    +0.000 C 
ATOM     14  C   UNL     1      13.544   3.731   0.641  0.00  0.00    +0.000 C 
ATOM     15  C   UNL     1      14.929   3.354   0.413  0.00  0.00    +0.000 C 
ATOM     16  C   UNL     1      14.438   2.499  -1.076  0.00  0.00    +0.000 C 
ATOM     17  C   UNL     1      12.299   2.088  -1.610  0.00  0.00    +0.000 C 
ATOM     18  C   UNL     1      14.170   3.674  -1.758  0.00  0.00    +0.000 C 
ATOM     19  C   UNL     1      15.284   5.243  -0.681  0.00  0.00    +0.000 C 
ATOM     20  C   UNL     1      14.145   6.074  -0.547  0.00  0.00    +0.000 C 
ATOM     21  C   UNL     1      13.697   7.000  -1.531  0.00  0.00    +0.000 C 
ATOM     22  N   UNL     1      12.404   7.118  -1.641  0.00  0.00    +0.000 NA
ATOM     23  C   UNL     1      14.537   8.183  -1.540  0.00  0.00    +0.000 C 
ATOM     24  C   UNL     1      14.114   9.035  -2.686  0.00  0.00    +0.000 C 
ATOM     25  C   UNL     1      16.009   7.828  -1.540  0.00  0.00    +0.000 C 
ATOM     26  O   UNL     1      16.294   6.742  -0.563  0.00  0.00    +0.000 OA
ATOM     27  O   UNL     1      15.746   4.581   0.509  0.00  0.00    +0.000 OA
ATOM     28  O   UNL     1      10.093   0.828  -1.493  0.00  0.00    +0.000 OA
ATOM     29  C   UNL     1       8.088  -0.332  -1.205  0.00  0.00    +0.000 C 
ATOM     30  O   UNL     1       7.737  -1.334  -0.036  0.00  0.00    +0.000 OA
ATOM     31  C   UNL     1       5.650  -1.272  -0.879  0.00  0.00    +0.000 C 
ATOM     32  C   UNL     1       3.519  -2.010   0.053  0.00  0.00    +0.000 C 
ATOM     33  C   UNL     1       1.703  -2.108   0.362  0.00  0.00    +0.000 C 
ATOM     34  C   UNL     1       0.128  -2.915   1.147  0.00  0.00    +0.000 C 
ATOM     35  C   UNL     1       0.928  -0.955  -0.156  0.00  0.00    +0.000 C 
ATOM     36  C   UNL     1       3.852  -0.787  -0.233  0.00  0.00    +0.000 C 
ENDROOT
BRANCH  25  37
ATOM     37  C   UNL     1      16.820   9.128  -1.358  0.00  0.00    +0.000 C 
ATOM     38  C   UNL     1      16.276  10.440  -1.868  0.00  0.00    +0.000 C 
ATOM     39  C   UNL     1      18.012   9.143  -0.753  0.00  0.00    +0.000 C 
BRANCH  39  40
ATOM     40  C   UNL     1      18.799  10.402  -0.545  0.00  0.00    +0.000 C 
ATOM     41  C   UNL     1      18.001  11.384   0.292  0.00  0.00    +0.000 C 
ATOM     42  C   UNL     1      20.098  10.111   0.157  0.00  0.00    +0.000 C 
ENDBRANCH  39  40
ENDBRANCH  25  37
BRANCH  22  43
ATOM     43  O   UNL     1      11.836   5.924  -2.067  0.00  0.00    +0.000 OA
ATOM     44  C   UNL     1      10.418   5.955  -2.093  0.00  0.00    +0.000 C 
ENDBRANCH  22  43
BRANCH  35  45
ATOM     45  O   UNL     1      -0.263  -0.285   0.642  0.00  0.00    +0.000 OA
ATOM     46  H   UNL     1       0.105  -0.095   1.524  0.00  0.00    +0.000 HD
ENDBRANCH  35  45
BRANCH  36  47
ATOM     47  O   UNL     1       5.086  -2.101  -0.185  0.00  0.00    +0.000 OA
ATOM     48  H   UNL     1       4.324  -3.064  -0.543  0.00  0.00    +0.000 HD
ENDBRANCH  36  47
TORSDOF 5
