REMARK  Name = Moxisylyte
REMARK  13 active torsions:
REMARK  status: ('A' for Active; 'I' for Inactive)
REMARK    1  A    between atoms: C_1  and  C_2
REMARK    2  A    between atoms: C_2  and  C_3
REMARK    3  A    between atoms: C_2  and  C_4
REMARK    4  A    between atoms: C_5  and  O_6
REMARK    5  A    between atoms: O_6  and  C_7
REMARK    6  A    between atoms: C_7  and  C_8
REMARK    7  A    between atoms: C_8  and  N_9
REMARK    8  A    between atoms: N_9  and  C_10
REMARK    9  A    between atoms: N_9  and  C_11
REMARK   10  A    between atoms: C_13  and  C_14
REMARK   11  A    between atoms: C_15  and  O_16
REMARK   12  A    between atoms: O_16  and  C_17
REMARK   13  A    between atoms: C_17  and  C_18
REMARK                            x       y       z     vdW  Elec       q    Type
REMARK                         _______ _______ _______ _____ _____    ______ ____
ROOT
ATOM      1  C   UNL     1       3.206  -1.405  -0.058  0.00  0.00    +0.000 A 
ATOM      2  C   UNL     1       4.567  -1.705   0.004  0.00  0.00    +0.000 A 
ATOM      3  C   UNL     1       4.958  -3.076   0.008  0.00  0.00    +0.000 A 
ATOM      4  C   UNL     1       4.021  -4.149  -0.002  0.00  0.00    +0.000 A 
ATOM      5  C   UNL     1       4.470  -5.579  -0.043  0.00  0.00    +0.000 C 
ATOM      6  C   UNL     1       2.678  -3.817  -0.021  0.00  0.00    +0.000 A 
ATOM      7  C   UNL     1       2.354  -2.491  -0.091  0.00  0.00    +0.000 A 
ENDROOT
BRANCH   1   9
ATOM      8  C   UNL     1       0.959  -0.002  -0.052  0.00  0.00    +0.000 C 
ATOM      9  C   UNL     1       2.498  -0.058  -0.200  0.00  0.00    +0.000 C 
ATOM     10  C   UNL     1       2.784   0.528  -1.592  0.00  0.00    +0.000 C 
ENDBRANCH   1   9
BRANCH   2  11
ATOM     11  O   UNL     1       5.609  -0.801   0.003  0.00  0.00    +0.000 OA
BRANCH  11  12
ATOM     12  C   UNL     1       5.243   0.539   0.298  0.00  0.00    +0.000 C 
BRANCH  12  13
ATOM     13  C   UNL     1       6.337   1.568   0.166  0.00  0.00    +0.000 C 
BRANCH  13  14
ATOM     14  N   UNL     1       5.757   2.937   0.103  0.00  0.00    +0.000 NA
ATOM     15  C   UNL     1       4.874   3.240   1.234  0.00  0.00    +0.000 C 
ATOM     16  C   UNL     1       6.853   3.893   0.038  0.00  0.00    +0.000 C 
ENDBRANCH  13  14
ENDBRANCH  12  13
ENDBRANCH  11  12
ENDBRANCH   2  11
BRANCH   6  17
ATOM     17  O   UNL     1       1.615  -4.773  -0.039  0.00  0.00    +0.000 OA
BRANCH  17  18
ATOM     18  C   UNL     1       0.193  -4.768  -0.012  0.00  0.00    +0.000 C 
ATOM     19  C   UNL     1      -0.599  -3.475   0.008  0.00  0.00    +0.000 C 
ATOM     20  O   UNL     1      -0.417  -5.823  -0.023  0.00  0.00    +0.000 OA
ENDBRANCH  17  18
ENDBRANCH   6  17
TORSDOF 7
