REMARK  Name = Moxifloxacin
REMARK  6 active torsions:
REMARK  status: ('A' for Active; 'I' for Inactive)
REMARK    1  A    between atoms: N_4  and  C_12
REMARK    2  A    between atoms: C_19  and  C_29
REMARK    3  A    between atoms: N_21  and  C_22
REMARK    4  A    between atoms: C_26  and  O_27
REMARK    5  A    between atoms: O_27  and  C_28
REMARK    6  A    between atoms: C_29  and  O_30
REMARK                            x       y       z     vdW  Elec       q    Type
REMARK                         _______ _______ _______ _____ _____    ______ ____
ROOT
ATOM      1  C   UNL     1       4.937  -1.747   1.633  0.00  0.00    +0.000 A 
ATOM      2  C   UNL     1       5.632  -2.660   0.814  0.00  0.00    +0.000 A 
ATOM      3  F   UNL     1       5.397  -2.685  -0.509  0.00  0.00    +0.000 F 
ATOM      4  C   UNL     1       6.601  -3.524   1.305  0.00  0.00    +0.000 A 
ATOM      5  C   UNL     1       6.902  -3.525   2.667  0.00  0.00    +0.000 A 
ATOM      6  C   UNL     1       7.933  -4.484   3.147  0.00  0.00    +0.000 A 
ATOM      7  O   UNL     1       8.479  -5.215   2.329  0.00  0.00    +0.000 OA
ATOM      8  C   UNL     1       8.265  -4.518   4.596  0.00  0.00    +0.000 A 
ATOM      9  C   UNL     1       7.574  -3.655   5.352  0.00  0.00    +0.000 A 
ATOM     10  N   UNL     1       6.593  -2.755   4.958  0.00  0.00    +0.000 N 
ATOM     11  C   UNL     1       6.247  -2.651   3.558  0.00  0.00    +0.000 A 
ATOM     12  C   UNL     1       5.269  -1.741   3.019  0.00  0.00    +0.000 A 
ENDROOT
BRANCH   1  15
ATOM     13  C   UNL     1       2.058  -0.048  -0.001  0.00  0.00    +0.000 C 
ATOM     14  C   UNL     1       2.764  -1.375   0.416  0.00  0.00    +0.000 C 
ATOM     15  N   UNL     1       3.999  -0.915   1.069  0.00  0.00    +0.000 N 
ATOM     16  C   UNL     1       4.146   0.525   0.958  0.00  0.00    +0.000 C 
ATOM     17  C   UNL     1       2.650   0.972   0.976  0.00  0.00    +0.000 C 
ATOM     18  N   UNL     1       2.375   2.369   0.681  0.00  0.00    +0.000 NA
ATOM     19  C   UNL     1       2.915   2.734  -0.617  0.00  0.00    +0.000 C 
ATOM     20  C   UNL     1       2.428   1.814  -1.739  0.00  0.00    +0.000 C 
ATOM     21  C   UNL     1       2.452   0.315  -1.433  0.00  0.00    +0.000 C 
ATOM     22  H   UNL     1       2.811   2.948   1.401  0.00  0.00    +0.000 HD
ENDBRANCH   1  15
BRANCH  10  23
ATOM     23  C   UNL     1       5.966  -1.897   5.996  0.00  0.00    +0.000 C 
ATOM     24  C   UNL     1       6.145  -1.968   7.483  0.00  0.00    +0.000 C 
ATOM     25  C   UNL     1       6.806  -0.864   6.708  0.00  0.00    +0.000 C 
ENDBRANCH  10  23
BRANCH  12  26
ATOM     26  O   UNL     1       4.723  -0.897   3.953  0.00  0.00    +0.000 OA
ATOM     27  C   UNL     1       3.565  -0.132   3.739  0.00  0.00    +0.000 C 
ENDBRANCH  12  26
BRANCH   8  28
ATOM     28  C   UNL     1       9.294  -5.462   5.121  0.00  0.00    +0.000 C 
ATOM     29  O   UNL     1       9.912  -6.241   4.427  0.00  0.00    +0.000 OA
BRANCH  28  30
ATOM     30  O   UNL     1       9.533  -5.431   6.456  0.00  0.00    +0.000 OA
ATOM     31  H   UNL     1       9.050  -4.820   7.029  0.00  0.00    +0.000 HD
ENDBRANCH  28  30
ENDBRANCH   8  28
TORSDOF 5
