REMARK  Name = Moxonidine
REMARK  4 active torsions:
REMARK  status: ('A' for Active; 'I' for Inactive)
REMARK    1  A    between atoms: C_1  and  O_2
REMARK    2  A    between atoms: O_2  and  C_3
REMARK    3  A    between atoms: C_5  and  C_6
REMARK    4  A    between atoms: C_10  and  N_11
REMARK                            x       y       z     vdW  Elec       q    Type
REMARK                         _______ _______ _______ _____ _____    ______ ____
ROOT
ATOM      1  C   UNL     1       3.131   0.646  -0.878  0.00  0.00    +0.000 A 
ATOM      2  N   UNL     1       4.225   0.038  -1.404  0.00  0.00    +0.000 NA
ATOM      3  C   UNL     1       4.960   0.721  -2.294  0.00  0.00    +0.000 A 
ATOM      4  C   UNL     1       6.216   0.068  -2.804  0.00  0.00    +0.000 C 
ATOM      5  N   UNL     1       4.642   1.943  -2.716  0.00  0.00    +0.000 NA
ATOM      6  C   UNL     1       3.542   2.501  -2.143  0.00  0.00    +0.000 A 
ATOM      7 CL   UNL     1       3.230   4.080  -2.775  0.00  0.00    +0.000 Cl
ATOM      8  C   UNL     1       2.709   1.933  -1.171  0.00  0.00    +0.000 A 
ENDROOT
BRANCH   8   9
ATOM      9  N   UNL     1       1.691   2.712  -0.521  0.00  0.00    +0.000 N 
ATOM     10  C   UNL     1       0.706   2.215   0.301  0.00  0.00    +0.000 C 
ATOM     11  N   UNL     1      -0.537   2.057  -0.042  0.00  0.00    +0.000 NA
ATOM     12  C   UNL     1      -1.136   1.249   1.084  0.00  0.00    +0.000 C 
ATOM     13  C   UNL     1       0.009   0.952   2.065  0.00  0.00    +0.000 C 
ATOM     14  N   UNL     1       1.043   1.837   1.567  0.00  0.00    +0.000 N 
ATOM     15  H   UNL     1       1.279   3.321  -1.224  0.00  0.00    +0.000 HD
ATOM     16  H   UNL     1       2.007   1.607   1.753  0.00  0.00    +0.000 HD
ENDBRANCH   8   9
BRANCH   1  18
ATOM     17  C   UNL     1       1.312  -0.691  -0.376  0.00  0.00    +0.000 C 
ATOM     18  O   UNL     1       2.542  -0.141   0.076  0.00  0.00    +0.000 OA
ENDBRANCH   1  18
TORSDOF 2
