REMARK  Name = Mupirocin
REMARK  24 active torsions:
REMARK  status: ('A' for Active; 'I' for Inactive)
REMARK    1  A    between atoms: C_1  and  C_2
REMARK    2  A    between atoms: C_2  and  O_3
REMARK    3  A    between atoms: C_2  and  C_4
REMARK    4  A    between atoms: C_4  and  C_5
REMARK    5  A    between atoms: C_4  and  C_6
REMARK    6  A    between atoms: C_8  and  C_9
REMARK    7  A    between atoms: C_9  and  C_10
REMARK    8  A    between atoms: C_13  and  C_14
REMARK    9  A    between atoms: C_14  and  C_15
REMARK   10  A    between atoms: C_15  and  C_16
REMARK   11  A    between atoms: C_17  and  C_18
REMARK   12  A    between atoms: C_18  and  O_20
REMARK   13  A    between atoms: O_20  and  C_21
REMARK   14  A    between atoms: C_21  and  C_22
REMARK   15  A    between atoms: C_22  and  C_23
REMARK   16  A    between atoms: C_23  and  C_24
REMARK   17  A    between atoms: C_24  and  C_25
REMARK   18  A    between atoms: C_25  and  C_26
REMARK   19  A    between atoms: C_26  and  C_27
REMARK   20  A    between atoms: C_27  and  C_28
REMARK   21  A    between atoms: C_28  and  C_29
REMARK   22  A    between atoms: C_29  and  O_30
REMARK   23  A    between atoms: C_32  and  O_33
REMARK   24  A    between atoms: C_34  and  O_35
REMARK                            x       y       z     vdW  Elec       q    Type
REMARK                         _______ _______ _______ _____ _____    ______ ____
ROOT
ATOM      1  C   UNL     1       1.497  -3.042  -1.098  0.00  0.00    +0.000 C 
ATOM      2  C   UNL     1       0.961  -4.460  -1.273  0.00  0.00    +0.000 C 
ATOM      3  O   UNL     1      -0.300  -4.609  -0.673  0.00  0.00    +0.000 OA
ATOM      4  C   UNL     1      -0.209  -4.489   0.742  0.00  0.00    +0.000 C 
ATOM      5  C   UNL     1       0.335  -3.078   1.109  0.00  0.00    +0.000 C 
ATOM      6  C   UNL     1       1.684  -2.828   0.415  0.00  0.00    +0.000 C 
ENDROOT
BRANCH   6   7
ATOM      7  O   UNL     1       2.166  -1.523   0.719  0.00  0.00    +0.000 OA
ATOM      8  H   UNL     1       1.418  -0.909   0.588  0.00  0.00    +0.000 HD
ENDBRANCH   6   7
BRANCH   5   9
ATOM      9  O   UNL     1      -0.607  -2.058   0.734  0.00  0.00    +0.000 OA
ATOM     10  H   UNL     1      -0.906  -2.251  -0.174  0.00  0.00    +0.000 HD
ENDBRANCH   5   9
BRANCH   4  11
ATOM     11  C   UNL     1       0.650  -5.637   1.329  0.00  0.00    +0.000 C 
BRANCH  11  12
ATOM     12  C   UNL     1       0.638  -5.706   2.832  0.00  0.00    +0.000 C 
ATOM     13  C   UNL     1      -0.296  -4.780   3.576  0.00  0.00    +0.000 C 
ATOM     14  C   UNL     1       1.477  -6.532   3.498  0.00  0.00    +0.000 C 
BRANCH  14  15
ATOM     15  C   UNL     1       1.486  -6.557   4.980  0.00  0.00    +0.000 C 
ATOM     16  O   UNL     1       0.800  -5.827   5.696  0.00  0.00    +0.000 OA
BRANCH  15  17
ATOM     17  O   UNL     1       2.338  -7.489   5.462  0.00  0.00    +0.000 OA
BRANCH  17  18
ATOM     18  C   UNL     1       2.298  -7.503   6.900  0.00  0.00    +0.000 C 
BRANCH  18  19
ATOM     19  C   UNL     1       3.256  -8.553   7.428  0.00  0.00    +0.000 C 
BRANCH  19  20
ATOM     20  C   UNL     1       3.236  -8.596   8.953  0.00  0.00    +0.000 C 
BRANCH  20  21
ATOM     21  C   UNL     1       4.204  -9.655   9.464  0.00  0.00    +0.000 C 
BRANCH  21  22
ATOM     22  C   UNL     1       4.191  -9.704  10.984  0.00  0.00    +0.000 C 
BRANCH  22  23
ATOM     23  C   UNL     1       5.161 -10.765  11.489  0.00  0.00    +0.000 C 
BRANCH  23  24
ATOM     24  C   UNL     1       5.131 -10.796  13.009  0.00  0.00    +0.000 C 
BRANCH  24  25
ATOM     25  C   UNL     1       6.081 -11.839  13.573  0.00  0.00    +0.000 C 
BRANCH  25  26
ATOM     26  C   UNL     1       6.110 -11.934  15.082  0.00  0.00    +0.000 C 
ATOM     27  O   UNL     1       6.834 -12.733  15.664  0.00  0.00    +0.000 OA
BRANCH  26  28
ATOM     28  O   UNL     1       5.306 -11.100  15.771  0.00  0.00    +0.000 OA
ATOM     29  H   UNL     1       4.751 -10.483  15.263  0.00  0.00    +0.000 HD
ENDBRANCH  26  28
ENDBRANCH  25  26
ENDBRANCH  24  25
ENDBRANCH  23  24
ENDBRANCH  22  23
ENDBRANCH  21  22
ENDBRANCH  20  21
ENDBRANCH  19  20
ENDBRANCH  18  19
ENDBRANCH  17  18
ENDBRANCH  15  17
ENDBRANCH  14  15
ENDBRANCH  11  12
ENDBRANCH   4  11
BRANCH   1  30
ATOM     30  C   UNL     1       2.770  -2.935  -1.909  0.00  0.00    +0.000 C 
BRANCH  30  33
ATOM     31  C   UNL     1       1.331  -3.709  -4.112  0.00  0.00    +0.000 C 
ATOM     32  O   UNL     1       1.801  -2.359  -4.177  0.00  0.00    +0.000 OA
ATOM     33  C   UNL     1       2.609  -3.215  -3.378  0.00  0.00    +0.000 C 
BRANCH  31  34
ATOM     34  C   UNL     1       1.574  -4.728  -5.190  0.00  0.00    +0.000 C 
ATOM     35  C   UNL     1       1.258  -6.145  -4.621  0.00  0.00    +0.000 C 
BRANCH  34  37
ATOM     36  C   UNL     1      -0.315  -5.454  -6.764  0.00  0.00    +0.000 C 
ATOM     37  C   UNL     1       0.814  -4.456  -6.518  0.00  0.00    +0.000 C 
BRANCH  37  38
ATOM     38  O   UNL     1       0.308  -3.128  -6.623  0.00  0.00    +0.000 OA
ATOM     39  H   UNL     1      -0.664  -3.147  -6.605  0.00  0.00    +0.000 HD
ENDBRANCH  37  38
ENDBRANCH  34  37
ENDBRANCH  31  34
ENDBRANCH  30  33
ENDBRANCH   1  30
TORSDOF 21
