REMARK  Name = Muzolimine
REMARK  3 active torsions:
REMARK  status: ('A' for Active; 'I' for Inactive)
REMARK    1  A    between atoms: C_1  and  C_2
REMARK    2  A    between atoms: C_2  and  N_3
REMARK    3  A    between atoms: C_2  and  C_10
REMARK                            x       y       z     vdW  Elec       q    Type
REMARK                         _______ _______ _______ _____ _____    ______ ____
ROOT
ATOM      1  C   UNL     1       1.098   0.092   0.085  0.00  0.00    +0.000 C 
ATOM      2  C   UNL     1       2.645   0.129   0.150  0.00  0.00    +0.000 C 
ENDROOT
BRANCH   2   3
ATOM      3  N   UNL     1       3.123   1.542   0.267  0.00  0.00    +0.000 N 
ATOM      4  N   UNL     1       3.949   1.950   1.283  0.00  0.00    +0.000 NA
ATOM      5  C   UNL     1       3.997   3.236   1.310  0.00  0.00    +0.000 C 
ATOM      6  N   UNL     1       4.694   3.935   2.240  0.00  0.00    +0.000 N 
ATOM      7  C   UNL     1       3.165   3.841   0.230  0.00  0.00    +0.000 C 
ATOM      8  C   UNL     1       2.828   2.610  -0.584  0.00  0.00    +0.000 C 
ATOM      9  O   UNL     1       2.344   2.594  -1.707  0.00  0.00    +0.000 OA
ATOM     10  H   UNL     1       5.244   3.419   2.921  0.00  0.00    +0.000 HD
ATOM     11  H   UNL     1       4.738   4.943   2.269  0.00  0.00    +0.000 HD
ENDBRANCH   2   3
BRANCH   2  12
ATOM     12  C   UNL     1       3.071  -0.854   1.277  0.00  0.00    +0.000 A 
ATOM     13  C   UNL     1       3.718  -0.457   2.461  0.00  0.00    +0.000 A 
ATOM     14  C   UNL     1       4.035  -1.316   3.509  0.00  0.00    +0.000 A 
ATOM     15 CL   UNL     1       4.814  -0.617   4.887  0.00  0.00    +0.000 Cl
ATOM     16  C   UNL     1       3.688  -2.649   3.410  0.00  0.00    +0.000 A 
ATOM     17 CL   UNL     1       4.030  -3.768   4.674  0.00  0.00    +0.000 Cl
ATOM     18  C   UNL     1       3.031  -3.098   2.260  0.00  0.00    +0.000 A 
ATOM     19  C   UNL     1       2.736  -2.218   1.202  0.00  0.00    +0.000 A 
ENDBRANCH   2  12
TORSDOF 2
