REMARK  Name = Mycophenolate mofetil
REMARK  14 active torsions:
REMARK  status: ('A' for Active; 'I' for Inactive)
REMARK    1  A    between atoms: C_1  and  O_2
REMARK    2  A    between atoms: O_2  and  C_3
REMARK    3  A    between atoms: C_4  and  C_5
REMARK    4  A    between atoms: C_5  and  C_6
REMARK    5  A    between atoms: C_7  and  C_8
REMARK    6  A    between atoms: C_7  and  C_9
REMARK    7  A    between atoms: C_9  and  C_10
REMARK    8  A    between atoms: C_10  and  C_11
REMARK    9  A    between atoms: C_11  and  O_13
REMARK   10  A    between atoms: O_13  and  C_14
REMARK   11  A    between atoms: C_14  and  C_15
REMARK   12  A    between atoms: C_15  and  N_16
REMARK   13  A    between atoms: C_22  and  O_23
REMARK   14  A    between atoms: C_30  and  C_31
REMARK                            x       y       z     vdW  Elec       q    Type
REMARK                         _______ _______ _______ _____ _____    ______ ____
ROOT
ATOM      1  C   UNL     1       1.693  -2.427  -1.090  0.00  0.00    +0.000 C 
ENDROOT
BRANCH   1   3
ATOM      2  C   UNL     1       3.062  -1.037   0.621  0.00  0.00    +0.000 A 
ATOM      3  C   UNL     1       2.698  -2.282   0.044  0.00  0.00    +0.000 A 
ATOM      4  C   UNL     1       3.335  -3.450   0.538  0.00  0.00    +0.000 A 
ATOM      5  C   UNL     1       4.379  -3.328   1.445  0.00  0.00    +0.000 A 
ATOM      6  C   UNL     1       5.204  -4.364   2.090  0.00  0.00    +0.000 C 
ATOM      7  O   UNL     1       5.039  -5.554   2.121  0.00  0.00    +0.000 OA
ATOM      8  O   UNL     1       6.233  -3.692   2.707  0.00  0.00    +0.000 OA
ATOM      9  C   UNL     1       5.958  -2.288   2.800  0.00  0.00    +0.000 C 
ATOM     10  C   UNL     1       4.829  -2.096   1.866  0.00  0.00    +0.000 A 
ATOM     11  C   UNL     1       4.196  -0.929   1.458  0.00  0.00    +0.000 A 
ATOM     12  C   UNL     1       4.711   0.422   1.865  0.00  0.00    +0.000 C 
BRANCH   2  14
ATOM     13  C   UNL     1       1.039   0.249   0.560  0.00  0.00    +0.000 C 
ATOM     14  O   UNL     1       2.452   0.163   0.352  0.00  0.00    +0.000 OA
ENDBRANCH   2  14
BRANCH   4  15
ATOM     15  O   UNL     1       2.979  -4.709   0.146  0.00  0.00    +0.000 OA
ATOM     16  H   UNL     1       2.203  -4.709  -0.432  0.00  0.00    +0.000 HD
ENDBRANCH   4  15
ENDBRANCH   1   3
BRANCH   1  17
ATOM     17  C   UNL     1       1.327  -1.183  -1.876  0.00  0.00    +0.000 C 
ATOM     18  C   UNL     1       0.110  -0.980  -2.413  0.00  0.00    +0.000 C 
ATOM     19  C   UNL     1      -0.723  -2.155  -2.820  0.00  0.00    +0.000 C 
BRANCH  18  20
ATOM     20  C   UNL     1      -0.415   0.429  -2.651  0.00  0.00    +0.000 C 
BRANCH  20  21
ATOM     21  C   UNL     1      -1.608   0.471  -3.595  0.00  0.00    +0.000 C 
BRANCH  21  22
ATOM     22  C   UNL     1      -1.998   1.878  -3.920  0.00  0.00    +0.000 C 
ATOM     23  O   UNL     1      -1.546   2.877  -3.377  0.00  0.00    +0.000 OA
BRANCH  22  24
ATOM     24  O   UNL     1      -2.936   1.877  -4.916  0.00  0.00    +0.000 OA
BRANCH  24  25
ATOM     25  C   UNL     1      -3.335   3.206  -5.269  0.00  0.00    +0.000 C 
BRANCH  25  26
ATOM     26  C   UNL     1      -4.562   3.192  -6.190  0.00  0.00    +0.000 C 
BRANCH  26  27
ATOM     27  N   UNL     1      -5.399   4.400  -6.356  0.00  0.00    +0.000 NA
ATOM     28  C   UNL     1      -4.770   5.737  -6.488  0.00  0.00    +0.000 C 
ATOM     29  C   UNL     1      -4.211   6.328  -5.179  0.00  0.00    +0.000 C 
ATOM     30  O   UNL     1      -5.182   6.297  -4.119  0.00  0.00    +0.000 OA
ATOM     31  C   UNL     1      -5.752   4.997  -3.944  0.00  0.00    +0.000 C 
ATOM     32  C   UNL     1      -6.370   4.472  -5.246  0.00  0.00    +0.000 C 
ENDBRANCH  26  27
ENDBRANCH  25  26
ENDBRANCH  24  25
ENDBRANCH  22  24
ENDBRANCH  21  22
ENDBRANCH  20  21
ENDBRANCH  18  20
ENDBRANCH   1  17
TORSDOF 11
