REMARK  Name = Mycophenolic acid
REMARK  11 active torsions:
REMARK  status: ('A' for Active; 'I' for Inactive)
REMARK    1  A    between atoms: C_1  and  O_2
REMARK    2  A    between atoms: O_2  and  C_3
REMARK    3  A    between atoms: C_4  and  C_5
REMARK    4  A    between atoms: C_5  and  C_6
REMARK    5  A    between atoms: C_7  and  C_8
REMARK    6  A    between atoms: C_7  and  C_9
REMARK    7  A    between atoms: C_9  and  C_10
REMARK    8  A    between atoms: C_10  and  C_11
REMARK    9  A    between atoms: C_11  and  O_12
REMARK   10  A    between atoms: C_14  and  O_15
REMARK   11  A    between atoms: C_22  and  C_23
REMARK                            x       y       z     vdW  Elec       q    Type
REMARK                         _______ _______ _______ _____ _____    ______ ____
ROOT
ATOM      1  C   UNL     1       2.966  -0.282   1.227  0.00  0.00    +0.000 A 
ATOM      2  C   UNL     1       2.637  -1.488   1.902  0.00  0.00    +0.000 A 
ATOM      3  C   UNL     1       3.318  -1.778   3.114  0.00  0.00    +0.000 A 
ATOM      4  C   UNL     1       4.361  -0.960   3.524  0.00  0.00    +0.000 A 
ATOM      5  C   UNL     1       5.226  -1.046   4.712  0.00  0.00    +0.000 C 
ATOM      6  O   UNL     1       5.105  -1.735   5.692  0.00  0.00    +0.000 OA
ATOM      7  O   UNL     1       6.232  -0.131   4.510  0.00  0.00    +0.000 OA
ATOM      8  C   UNL     1       5.905   0.778   3.450  0.00  0.00    +0.000 C 
ATOM      9  C   UNL     1       4.768   0.122   2.773  0.00  0.00    +0.000 A 
ATOM     10  C   UNL     1       4.095   0.477   1.611  0.00  0.00    +0.000 A 
ATOM     11  C   UNL     1       4.563   1.620   0.756  0.00  0.00    +0.000 C 
ENDROOT
BRANCH   1  13
ATOM     12  C   UNL     1       0.936   0.431   0.162  0.00  0.00    +0.000 C 
ATOM     13  O   UNL     1       2.344   0.188   0.096  0.00  0.00    +0.000 OA
ENDBRANCH   1  13
BRANCH   3  14
ATOM     14  O   UNL     1       3.010  -2.852   3.899  0.00  0.00    +0.000 OA
ATOM     15  H   UNL     1       2.238  -3.340   3.578  0.00  0.00    +0.000 HD
ENDBRANCH   3  14
BRANCH   2  16
ATOM     16  C   UNL     1       1.631  -2.505   1.384  0.00  0.00    +0.000 C 
BRANCH  16  17
ATOM     17  C   UNL     1       1.219  -2.402  -0.067  0.00  0.00    +0.000 C 
ATOM     18  C   UNL     1      -0.002  -2.737  -0.521  0.00  0.00    +0.000 C 
ATOM     19  C   UNL     1      -0.788  -3.791   0.193  0.00  0.00    +0.000 C 
BRANCH  18  20
ATOM     20  C   UNL     1      -0.557  -2.088  -1.779  0.00  0.00    +0.000 C 
BRANCH  20  21
ATOM     21  C   UNL     1      -1.753  -2.814  -2.363  0.00  0.00    +0.000 C 
BRANCH  21  22
ATOM     22  C   UNL     1      -2.316  -2.291  -3.658  0.00  0.00    +0.000 C 
ATOM     23  O   UNL     1      -3.262  -2.847  -4.203  0.00  0.00    +0.000 OA
BRANCH  22  24
ATOM     24  O   UNL     1      -1.761  -1.188  -4.189  0.00  0.00    +0.000 OA
ATOM     25  H   UNL     1      -1.012  -0.775  -3.727  0.00  0.00    +0.000 HD
ENDBRANCH  22  24
ENDBRANCH  21  22
ENDBRANCH  20  21
ENDBRANCH  18  20
ENDBRANCH  16  17
ENDBRANCH   2  16
TORSDOF 8
