REMARK  Name = N-acetyltyrosine
REMARK  7 active torsions:
REMARK  status: ('A' for Active; 'I' for Inactive)
REMARK    1  A    between atoms: C_1  and  C_2
REMARK    2  A    between atoms: N_4  and  CA_5
REMARK    3  A    between atoms: CA_5  and  CB_6
REMARK    4  A    between atoms: CA_5  and  C_14
REMARK    5  A    between atoms: CB_6  and  CG_7
REMARK    6  A    between atoms: CZ_10  and  OH_11
REMARK    7  A    between atoms: C_14  and  O_15
REMARK                            x       y       z     vdW  Elec       q    Type
REMARK                         _______ _______ _______ _____ _____    ______ ____
ROOT
ATOM      1  CA  TYR A   1       4.644  -0.649  -1.079  0.00  0.00    +0.000 C 
ENDROOT
BRANCH   1   5
ATOM      2  C   UNK A   0       0.962  -0.116  -0.078  0.00  0.00    +0.000 C 
ATOM      3  C   UNK A   0       2.442   0.093  -0.082  0.00  0.00    +0.000 C 
ATOM      4  O   UNK A   0       2.914   0.945   0.663  0.00  0.00    +0.000 OA
ATOM      5  N   TYR A   1       3.153  -0.648  -1.004  0.00  0.00    +0.000 N 
ATOM      6  H   TYR A   1       2.589  -1.039  -1.737  0.00  0.00    +0.000 HD
ENDBRANCH   1   5
BRANCH   1   7
ATOM      7  C   TYR A   1       5.282  -1.243  -2.364  0.00  0.00    +0.000 C 
ATOM      8  OXT TYR A   1       6.493  -1.315  -2.539  0.00  0.00    +0.000 OA
BRANCH   7   9
ATOM      9  O   TYR A   1       4.440  -1.693  -3.318  0.00  0.00    +0.000 OA
ATOM     10  H   TYR A   1       3.492  -1.607  -3.157  0.00  0.00    +0.000 HD
ENDBRANCH   7   9
ENDBRANCH   1   7
BRANCH   1  11
ATOM     11  CB  TYR A   1       5.291  -1.413   0.117  0.00  0.00    +0.000 C 
BRANCH  11  12
ATOM     12  CG  TYR A   1       5.013  -0.830   1.486  0.00  0.00    +0.000 A 
ATOM     13  CD1 TYR A   1       5.273   0.527   1.753  0.00  0.00    +0.000 A 
ATOM     14  CE1 TYR A   1       4.816   1.124   2.932  0.00  0.00    +0.000 A 
ATOM     15  CZ  TYR A   1       4.177   0.342   3.887  0.00  0.00    +0.000 A 
ATOM     16  CE2 TYR A   1       3.975  -1.016   3.672  0.00  0.00    +0.000 A 
ATOM     17  CD2 TYR A   1       4.380  -1.602   2.470  0.00  0.00    +0.000 A 
BRANCH  15  18
ATOM     18  OH  TYR A   1       3.700   0.879   5.046  0.00  0.00    +0.000 OA
ATOM     19  HH  TYR A   1       3.883   1.833   5.036  0.00  0.00    +0.000 HD
ENDBRANCH  15  18
ENDBRANCH  11  12
ENDBRANCH   1  11
TORSDOF 6
