REMARK  Name = N-Acetylglucosamine
REMARK  11 active torsions:
REMARK  status: ('A' for Active; 'I' for Inactive)
REMARK    1  A    between atoms: C_2  and  CA_4
REMARK    2  A    between atoms: CA_4  and  N_5
REMARK    3  A    between atoms: CA_4  and  C_9
REMARK    4  A    between atoms: C_6  and  C_7
REMARK    5  A    between atoms: C_9  and  O_10
REMARK    6  A    between atoms: C_9  and  C_11
REMARK    7  A    between atoms: C_11  and  O_12
REMARK    8  A    between atoms: C_11  and  C_13
REMARK    9  A    between atoms: C_13  and  O_14
REMARK   10  A    between atoms: C_13  and  C_15
REMARK   11  A    between atoms: C_15  and  O_16
REMARK                            x       y       z     vdW  Elec       q    Type
REMARK                         _______ _______ _______ _____ _____    ______ ____
ROOT
ATOM      1  C   UNL     1       6.324   0.230   2.881  0.00  0.00    +0.000 C 
ENDROOT
BRANCH   1   2
ATOM      2  O   UNL     1       5.145  -0.472   3.304  0.00  0.00    +0.000 OA
ATOM      3  H   UNL     1       5.415  -1.254   3.813  0.00  0.00    +0.000 HD
ENDBRANCH   1   2
BRANCH   1   4
ATOM      4  CA  UNL     1       7.381   0.327   4.031  0.00  0.00    +0.000 C 
BRANCH   4   5
ATOM      5  N   UNL     1       7.974  -0.980   4.419  0.00  0.00    +0.000 N 
ATOM      6  C   UNL     1       9.105  -1.678   4.093  0.00  0.00    +0.000 C 
ATOM      7  C   UNL     1      10.265  -1.099   3.288  0.00  0.00    +0.000 C 
ATOM      8  O   UNL     1       9.136  -2.856   4.461  0.00  0.00    +0.000 OA
ATOM      9  H   UNL     1       7.343  -1.594   4.929  0.00  0.00    +0.000 HD
ENDBRANCH   4   5
BRANCH   4  10
ATOM     10  C   UNL     1       8.363   1.459   3.751  0.00  0.00    +0.000 C 
ATOM     11  O   UNL     1       8.388   2.544   4.351  0.00  0.00    +0.000 OA
ENDBRANCH   4  10
ENDBRANCH   1   4
BRANCH   1  12
ATOM     12  C   UNL     1       6.850  -0.317   1.526  0.00  0.00    +0.000 C 
BRANCH  12  13
ATOM     13  O   UNL     1       8.261  -0.288   1.536  0.00  0.00    +0.000 OA
ATOM     14  H   UNL     1       8.467  -1.112   2.024  0.00  0.00    +0.000 HD
ENDBRANCH  12  13
BRANCH  12  15
ATOM     15  C   UNL     1       6.451  -1.742   1.035  0.00  0.00    +0.000 C 
BRANCH  15  16
ATOM     16  O   UNL     1       5.058  -1.984   1.088  0.00  0.00    +0.000 OA
ATOM     17  H   UNL     1       4.759  -1.801   1.998  0.00  0.00    +0.000 HD
ENDBRANCH  15  16
BRANCH  15  18
ATOM     18  C   UNL     1       7.198  -2.924   1.701  0.00  0.00    +0.000 C 
BRANCH  18  19
ATOM     19  O   UNL     1       8.609  -2.840   1.544  0.00  0.00    +0.000 OA
ATOM     20  H   UNL     1       8.844  -2.648   0.618  0.00  0.00    +0.000 HD
ENDBRANCH  18  19
ENDBRANCH  15  18
ENDBRANCH  12  15
ENDBRANCH   1  12
TORSDOF 10
