REMARK  Name = Nabilone
REMARK  12 active torsions:
REMARK  status: ('A' for Active; 'I' for Inactive)
REMARK    1  A    between atoms: C_10  and  C_11
REMARK    2  A    between atoms: C_10  and  C_12
REMARK    3  A    between atoms: C_16  and  C_21
REMARK    4  A    between atoms: C_18  and  O_19
REMARK    5  A    between atoms: C_21  and  C_22
REMARK    6  A    between atoms: C_21  and  C_23
REMARK    7  A    between atoms: C_21  and  C_24
REMARK    8  A    between atoms: C_24  and  C_25
REMARK    9  A    between atoms: C_25  and  C_26
REMARK   10  A    between atoms: C_26  and  C_27
REMARK   11  A    between atoms: C_27  and  C_28
REMARK   12  A    between atoms: C_28  and  C_29
REMARK                            x       y       z     vdW  Elec       q    Type
REMARK                         _______ _______ _______ _____ _____    ______ ____
ROOT
ATOM      1  C   UNL     1       2.168   0.016   0.042  0.00  0.00    +0.000 C 
ATOM      2  C   UNL     1       2.630   1.264   0.788  0.00  0.00    +0.000 C 
ATOM      3  C   UNL     1       2.186   1.160   2.206  0.00  0.00    +0.000 C 
ATOM      4  O   UNL     1       1.435   1.990   2.724  0.00  0.00    +0.000 OA
ATOM      5  C   UNL     1       2.746  -0.003   2.955  0.00  0.00    +0.000 C 
ATOM      6  C   UNL     1       2.358  -1.288   2.244  0.00  0.00    +0.000 C 
ATOM      7  C   UNL     1       2.689  -1.258   0.745  0.00  0.00    +0.000 C 
ATOM      8  C   UNL     1       2.188  -2.486  -0.055  0.00  0.00    +0.000 C 
ATOM      9  C   UNL     1       2.521  -3.786   0.709  0.00  0.00    +0.000 C 
ATOM     10  C   UNL     1       0.668  -2.509  -0.312  0.00  0.00    +0.000 C 
ATOM     11  O   UNL     1       2.869  -2.491  -1.334  0.00  0.00    +0.000 OA
ATOM     12  C   UNL     1       2.972  -1.267  -1.972  0.00  0.00    +0.000 A 
ATOM     13  C   UNL     1       3.475  -1.296  -3.273  0.00  0.00    +0.000 A 
ATOM     14  C   UNL     1       3.619  -0.115  -4.033  0.00  0.00    +0.000 A 
ATOM     15  C   UNL     1       3.231   1.096  -3.453  0.00  0.00    +0.000 A 
ATOM     16  C   UNL     1       2.719   1.126  -2.173  0.00  0.00    +0.000 A 
ATOM     17  C   UNL     1       2.627  -0.035  -1.394  0.00  0.00    +0.000 A 
ENDROOT
BRANCH  14  18
ATOM     18  C   UNL     1       4.148  -0.085  -5.471  0.00  0.00    +0.000 C 
ATOM     19  C   UNL     1       3.059   0.512  -6.396  0.00  0.00    +0.000 C 
ATOM     20  C   UNL     1       5.410   0.808  -5.527  0.00  0.00    +0.000 C 
BRANCH  18  21
ATOM     21  C   UNL     1       4.502  -1.507  -5.950  0.00  0.00    +0.000 C 
BRANCH  21  22
ATOM     22  C   UNL     1       5.031  -1.556  -7.368  0.00  0.00    +0.000 C 
BRANCH  22  23
ATOM     23  C   UNL     1       5.353  -2.979  -7.756  0.00  0.00    +0.000 C 
BRANCH  23  24
ATOM     24  C   UNL     1       5.877  -2.971  -9.179  0.00  0.00    +0.000 C 
BRANCH  24  25
ATOM     25  C   UNL     1       6.215  -4.382  -9.612  0.00  0.00    +0.000 C 
ATOM     26  C   UNL     1       6.738  -4.377 -11.032  0.00  0.00    +0.000 C 
ENDBRANCH  24  25
ENDBRANCH  23  24
ENDBRANCH  22  23
ENDBRANCH  21  22
ENDBRANCH  18  21
ENDBRANCH  14  18
BRANCH  16  27
ATOM     27  O   UNL     1       2.278   2.322  -1.691  0.00  0.00    +0.000 OA
ATOM     28  H   UNL     1       2.554   3.051  -2.268  0.00  0.00    +0.000 HD
ENDBRANCH  16  27
TORSDOF 7
