REMARK  Name = Nabumetone
REMARK  6 active torsions:
REMARK  status: ('A' for Active; 'I' for Inactive)
REMARK    1  A    between atoms: C_1  and  O_2
REMARK    2  A    between atoms: O_2  and  C_3
REMARK    3  A    between atoms: C_10  and  C_11
REMARK    4  A    between atoms: C_11  and  C_12
REMARK    5  A    between atoms: C_12  and  C_13
REMARK    6  A    between atoms: C_13  and  C_14
REMARK                            x       y       z     vdW  Elec       q    Type
REMARK                         _______ _______ _______ _____ _____    ______ ____
ROOT
ATOM      1  C   UNL     1       3.146   1.088  -0.689  0.00  0.00    +0.000 A 
ATOM      2  C   UNL     1       4.296   0.736  -1.393  0.00  0.00    +0.000 A 
ATOM      3  C   UNL     1       5.125   1.715  -1.950  0.00  0.00    +0.000 A 
ATOM      4  C   UNL     1       4.794   3.080  -1.804  0.00  0.00    +0.000 A 
ATOM      5  C   UNL     1       3.617   3.422  -1.121  0.00  0.00    +0.000 A 
ATOM      6  C   UNL     1       2.802   2.432  -0.557  0.00  0.00    +0.000 A 
ATOM      7  C   UNL     1       5.658   4.053  -2.332  0.00  0.00    +0.000 A 
ATOM      8  C   UNL     1       6.832   3.684  -3.009  0.00  0.00    +0.000 A 
ATOM      9  C   UNL     1       7.132   2.326  -3.149  0.00  0.00    +0.000 A 
ATOM     10  C   UNL     1       6.288   1.352  -2.631  0.00  0.00    +0.000 A 
ENDROOT
BRANCH   1  12
ATOM     11  C   UNL     1       1.079   0.116  -0.083  0.00  0.00    +0.000 C 
ATOM     12  O   UNL     1       2.498   0.047  -0.085  0.00  0.00    +0.000 OA
ENDBRANCH   1  12
BRANCH   8  13
ATOM     13  C   UNL     1       7.726   4.761  -3.565  0.00  0.00    +0.000 C 
BRANCH  13  14
ATOM     14  C   UNL     1       8.965   4.253  -4.294  0.00  0.00    +0.000 C 
BRANCH  14  15
ATOM     15  C   UNL     1       9.868   5.315  -4.870  0.00  0.00    +0.000 C 
ATOM     16  C   UNL     1       9.536   6.773  -4.716  0.00  0.00    +0.000 C 
ATOM     17  O   UNL     1      10.892   4.977  -5.475  0.00  0.00    +0.000 OA
ENDBRANCH  14  15
ENDBRANCH  13  14
ENDBRANCH   8  13
TORSDOF 4
