REMARK  Name = NADH
REMARK  18 active torsions:
REMARK  status: ('A' for Active; 'I' for Inactive)
REMARK    1  A    between atoms: C_2  and  C_4
REMARK    2  A    between atoms: N_6  and  C_10
REMARK    3  A    between atoms: C_12  and  C_13
REMARK    4  A    between atoms: C_13  and  O_14
REMARK    5  A    between atoms: O_14  and  P_15
REMARK    6  A    between atoms: P_15  and  O_16
REMARK    7  A    between atoms: P_15  and  O_18
REMARK    8  A    between atoms: O_18  and  P_19
REMARK    9  A    between atoms: P_19  and  O_20
REMARK   10  A    between atoms: P_19  and  O_22
REMARK   11  A    between atoms: O_22  and  C_23
REMARK   12  A    between atoms: C_23  and  C_24
REMARK   13  A    between atoms: C_26  and  N_31
REMARK   14  A    between atoms: C_27  and  O_28
REMARK   15  A    between atoms: C_29  and  O_30
REMARK   16  A    between atoms: C_35  and  N_36
REMARK   17  A    between atoms: C_41  and  O_42
REMARK   18  A    between atoms: C_43  and  O_44
REMARK                            x       y       z     vdW  Elec       q    Type
REMARK                         _______ _______ _______ _____ _____    ______ ____
ROOT
ATOM      1  O   UNL     1       8.452   1.508  -7.778  0.00  0.00    +0.000 OA
ENDROOT
BRANCH   1   2
ATOM      2  P   UNL     1       8.366   1.611  -9.502  0.00  0.00    +0.000 P 
ATOM      3  O   UNL     1       9.741   1.399 -10.135  0.00  0.00    +0.000 OA
BRANCH   2   4
ATOM      4  O   UNL     1       8.363  -0.115  -9.606  0.00  0.00    +0.000 OA
ATOM      5  H   UNL     1       8.709  -0.344 -10.491  0.00  0.00    +0.000 HD
ENDBRANCH   2   4
BRANCH   2   6
ATOM      6  O   UNL     1       8.369   3.338  -9.399  0.00  0.00    +0.000 OA
BRANCH   6   7
ATOM      7  C   UNL     1       9.658   3.720  -9.942  0.00  0.00    +0.000 C 
BRANCH   7   8
ATOM      8  C   UNL     1       9.668   5.155 -10.252  0.00  0.00    +0.000 C 
ATOM      9  O   UNL     1      10.974   5.503  -9.762  0.00  0.00    +0.000 OA
ATOM     10  C   UNL     1      11.624   6.409 -10.616  0.00  0.00    +0.000 C 
ATOM     11  C   UNL     1      10.871   6.266 -11.925  0.00  0.00    +0.000 C 
ATOM     12  C   UNL     1       9.451   5.885 -11.528  0.00  0.00    +0.000 C 
BRANCH  10  13
ATOM     13  N   UNL     1      13.026   6.088 -10.579  0.00  0.00    +0.000 N 
ATOM     14  C   UNL     1      14.072   6.911 -10.249  0.00  0.00    +0.000 A 
ATOM     15  N   UNL     1      15.233   6.302 -10.391  0.00  0.00    +0.000 NA
ATOM     16  C   UNL     1      14.902   5.000 -10.716  0.00  0.00    +0.000 A 
ATOM     17  C   UNL     1      15.663   3.865 -11.025  0.00  0.00    +0.000 A 
ATOM     18  N   UNL     1      15.019   2.698 -11.277  0.00  0.00    +0.000 NA
ATOM     19  C   UNL     1      13.670   2.683 -11.225  0.00  0.00    +0.000 A 
ATOM     20  N   UNL     1      12.842   3.714 -11.004  0.00  0.00    +0.000 NA
ATOM     21  C   UNL     1      13.533   4.837 -10.764  0.00  0.00    +0.000 A 
BRANCH  17  22
ATOM     22  N   UNL     1      17.034   3.901 -11.108  0.00  0.00    +0.000 N 
ATOM     23  H   UNL     1      17.502   4.778 -10.931  0.00  0.00    +0.000 HD
ATOM     24  H   UNL     1      17.522   3.062 -11.371  0.00  0.00    +0.000 HD
ENDBRANCH  17  22
ENDBRANCH  10  13
BRANCH  12  25
ATOM     25  O   UNL     1       8.691   7.107 -11.289  0.00  0.00    +0.000 OA
ATOM     26  H   UNL     1       8.996   7.491 -10.437  0.00  0.00    +0.000 HD
ENDBRANCH  12  25
BRANCH  11  27
ATOM     27  O   UNL     1      10.898   7.510 -12.614  0.00  0.00    +0.000 OA
ATOM     28  H   UNL     1      10.353   8.124 -12.078  0.00  0.00    +0.000 HD
ENDBRANCH  11  27
ENDBRANCH   7   8
ENDBRANCH   6   7
ENDBRANCH   2   6
ENDBRANCH   1   2
BRANCH   1  29
ATOM     29  P   UNL     1       7.063   2.291  -7.107  0.00  0.00    +0.000 P 
ATOM     30  O   UNL     1       7.503   1.957  -5.682  0.00  0.00    +0.000 OA
BRANCH  29  31
ATOM     31  O   UNL     1       5.673   3.074  -6.437  0.00  0.00    +0.000 OA
ATOM     32  H   UNL     1       5.271   2.451  -5.803  0.00  0.00    +0.000 HD
ENDBRANCH  29  31
BRANCH  29  33
ATOM     33  O   UNL     1       7.565   3.830  -7.443  0.00  0.00    +0.000 OA
BRANCH  33  34
ATOM     34  C   UNL     1       7.999   4.761  -6.465  0.00  0.00    +0.000 C 
BRANCH  34  37
ATOM     35  C   UNL     1      10.141   7.407  -6.273  0.00  0.00    +0.000 C 
ATOM     36  O   UNL     1       8.734   7.115  -6.077  0.00  0.00    +0.000 OA
ATOM     37  C   UNL     1       8.354   6.157  -7.056  0.00  0.00    +0.000 C 
ATOM     38  C   UNL     1       9.588   6.179  -7.892  0.00  0.00    +0.000 C 
ATOM     39  C   UNL     1      10.835   6.411  -7.147  0.00  0.00    +0.000 C 
BRANCH  35  42
ATOM     40  C   UNL     1      12.017   8.605  -3.474  0.00  0.00    +0.000 C 
ATOM     41  C   UNL     1      11.565   8.489  -4.716  0.00  0.00    +0.000 C 
ATOM     42  N   UNL     1      10.842   7.375  -5.061  0.00  0.00    +0.000 N 
ATOM     43  C   UNL     1      10.956   6.193  -4.355  0.00  0.00    +0.000 C 
ATOM     44  C   UNL     1      11.418   6.184  -3.113  0.00  0.00    +0.000 C 
ATOM     45  C   UNL     1      11.704   7.518  -2.481  0.00  0.00    +0.000 C 
BRANCH  40  47
ATOM     46  N   UNL     1      13.807   9.652  -2.344  0.00  0.00    +0.000 N 
ATOM     47  C   UNL     1      12.739   9.846  -3.169  0.00  0.00    +0.000 C 
ATOM     48  O   UNL     1      12.444  10.919  -3.618  0.00  0.00    +0.000 OA
ATOM     49  H   UNL     1      14.373  10.463  -2.148  0.00  0.00    +0.000 HD
ATOM     50  H   UNL     1      14.154   8.737  -2.108  0.00  0.00    +0.000 HD
ENDBRANCH  40  47
ENDBRANCH  35  42
BRANCH  39  51
ATOM     51  O   UNL     1      11.943   6.999  -7.833  0.00  0.00    +0.000 OA
ATOM     52  H   UNL     1      11.572   7.706  -8.377  0.00  0.00    +0.000 HD
ENDBRANCH  39  51
BRANCH  38  53
ATOM     53  O   UNL     1       9.495   7.265  -8.870  0.00  0.00    +0.000 OA
ATOM     54  H   UNL     1       9.225   8.089  -8.432  0.00  0.00    +0.000 HD
ENDBRANCH  38  53
ENDBRANCH  34  37
ENDBRANCH  33  34
ENDBRANCH  29  33
ENDBRANCH   1  29
TORSDOF 18
