REMARK  Name = Nafcillin
REMARK  9 active torsions:
REMARK  status: ('A' for Active; 'I' for Inactive)
REMARK    1  A    between atoms: C_4  and  C_5
REMARK    2  A    between atoms: C_4  and  C_6
REMARK    3  A    between atoms: CA_7  and  C_28
REMARK    4  A    between atoms: CA_11  and  N_12
REMARK    5  A    between atoms: C_13  and  C_15
REMARK    6  A    between atoms: C_16  and  O_17
REMARK    7  A    between atoms: O_17  and  C_18
REMARK    8  A    between atoms: C_18  and  C_19
REMARK    9  A    between atoms: C_28  and  O_29
REMARK                            x       y       z     vdW  Elec       q    Type
REMARK                         _______ _______ _______ _____ _____    ______ ____
ROOT
ATOM      1  N   UNL     1       3.340   1.770  -1.360  0.00  0.00    +0.000 N 
ATOM      2  C   UNL     1       3.879   3.031  -1.523  0.00  0.00    +0.000 C 
ATOM      3  O   UNL     1       3.845   3.866  -0.624  0.00  0.00    +0.000 OA
ATOM      4  H   UNL     1       3.307   1.147  -2.161  0.00  0.00    +0.000 HD
ENDROOT
BRANCH   1  14
ATOM      5  C   UNL     1       1.993   0.027  -0.001  0.00  0.00    +0.000 C 
ATOM      6  S   UNL     1       2.420  -1.237  -1.252  0.00  0.00    +0.000 S 
ATOM      7  C   UNL     1       2.770  -2.489   0.093  0.00  0.00    +0.000 C 
ATOM      8  C   UNL     1       3.711  -3.532  -0.517  0.00  0.00    +0.000 C 
ATOM      9  C   UNL     1       1.396  -3.079   0.460  0.00  0.00    +0.000 C 
ATOM     10  CA  UNL     1       3.456  -1.657   1.202  0.00  0.00    +0.000 C 
ATOM     11  N   UNL     1       2.831  -0.318   1.163  0.00  0.00    +0.000 N 
ATOM     12  C   UNL     1       3.600   0.816   1.043  0.00  0.00    +0.000 C 
ATOM     13  O   UNL     1       4.678   1.093   1.532  0.00  0.00    +0.000 OA
ATOM     14  CA  UNL     1       2.686   1.396  -0.073  0.00  0.00    +0.000 C 
BRANCH  10  15
ATOM     15  C   UNL     1       3.497  -2.210   2.649  0.00  0.00    +0.000 C 
ATOM     16  OXT UNL     1       3.945  -1.566   3.591  0.00  0.00    +0.000 OA
BRANCH  15  17
ATOM     17  O   UNL     1       3.053  -3.460   2.891  0.00  0.00    +0.000 OA
ATOM     18  H   UNL     1       2.889  -4.082   2.167  0.00  0.00    +0.000 HD
ENDBRANCH  15  17
ENDBRANCH  10  15
ENDBRANCH   1  14
BRANCH   2  19
ATOM     19  C   UNL     1       4.512   3.349  -2.840  0.00  0.00    +0.000 A 
ATOM     20  C   UNL     1       3.830   3.051  -4.040  0.00  0.00    +0.000 A 
ATOM     21  C   UNL     1       4.425   3.391  -5.258  0.00  0.00    +0.000 A 
ATOM     22  C   UNL     1       5.671   4.018  -5.295  0.00  0.00    +0.000 A 
ATOM     23  C   UNL     1       6.346   4.352  -4.117  0.00  0.00    +0.000 A 
ATOM     24  C   UNL     1       7.580   5.025  -4.186  0.00  0.00    +0.000 A 
ATOM     25  C   UNL     1       8.274   5.373  -3.030  0.00  0.00    +0.000 A 
ATOM     26  C   UNL     1       7.745   5.045  -1.791  0.00  0.00    +0.000 A 
ATOM     27  C   UNL     1       6.526   4.370  -1.711  0.00  0.00    +0.000 A 
ATOM     28  C   UNL     1       5.779   4.017  -2.862  0.00  0.00    +0.000 A 
BRANCH  20  29
ATOM     29  O   UNL     1       2.596   2.454  -3.943  0.00  0.00    +0.000 OA
BRANCH  29  30
ATOM     30  C   UNL     1       1.896   2.193  -5.161  0.00  0.00    +0.000 C 
ATOM     31  C   UNL     1       0.567   1.545  -4.825  0.00  0.00    +0.000 C 
ENDBRANCH  29  30
ENDBRANCH  20  29
ENDBRANCH   2  19
TORSDOF 6
