REMARK  Name = Naftifine
REMARK  6 active torsions:
REMARK  status: ('A' for Active; 'I' for Inactive)
REMARK    1  A    between atoms: C_1  and  N_2
REMARK    2  A    between atoms: N_2  and  C_3
REMARK    3  A    between atoms: N_2  and  C_12
REMARK    4  A    between atoms: C_3  and  C_4
REMARK    5  A    between atoms: C_5  and  C_6
REMARK    6  A    between atoms: C_12  and  C_13
REMARK                            x       y       z     vdW  Elec       q    Type
REMARK                         _______ _______ _______ _____ _____    ______ ____
ROOT
ATOM      1  C   UNL     1       0.999  -0.019  -0.036  0.00  0.00    +0.000 C 
ATOM      2  N   UNL     1       2.454   0.113   0.052  0.00  0.00    +0.000 NA
ENDROOT
BRANCH   2   3
ATOM      3  C   UNL     1       2.858   0.608   1.378  0.00  0.00    +0.000 C 
BRANCH   3   4
ATOM      4  C   UNL     1       2.508   2.051   1.496  0.00  0.00    +0.000 C 
ATOM      5  C   UNL     1       2.868   2.815   2.531  0.00  0.00    +0.000 C 
BRANCH   5   6
ATOM      6  C   UNL     1       2.365   4.178   2.665  0.00  0.00    +0.000 A 
ATOM      7  C   UNL     1       3.196   5.176   3.170  0.00  0.00    +0.000 A 
ATOM      8  C   UNL     1       2.674   6.440   3.442  0.00  0.00    +0.000 A 
ATOM      9  C   UNL     1       1.332   6.718   3.173  0.00  0.00    +0.000 A 
ATOM     10  C   UNL     1       0.505   5.734   2.639  0.00  0.00    +0.000 A 
ATOM     11  C   UNL     1       1.017   4.464   2.398  0.00  0.00    +0.000 A 
ENDBRANCH   5   6
ENDBRANCH   3   4
ENDBRANCH   2   3
BRANCH   2  12
ATOM     12  C   UNL     1       3.116  -1.152  -0.256  0.00  0.00    +0.000 C 
BRANCH  12  13
ATOM     13  C   UNL     1       4.642  -1.083  -0.349  0.00  0.00    +0.000 A 
ATOM     14  C   UNL     1       5.264  -2.353  -0.213  0.00  0.00    +0.000 A 
ATOM     15  C   UNL     1       6.635  -2.457  -0.034  0.00  0.00    +0.000 A 
ATOM     16  C   UNL     1       7.378  -1.296   0.056  0.00  0.00    +0.000 A 
ATOM     17  C   UNL     1       6.793  -0.032  -0.038  0.00  0.00    +0.000 A 
ATOM     18  C   UNL     1       7.549   1.082   0.306  0.00  0.00    +0.000 A 
ATOM     19  C   UNL     1       6.944   2.301   0.513  0.00  0.00    +0.000 A 
ATOM     20  C   UNL     1       5.987   2.578  -0.427  0.00  0.00    +0.000 A 
ATOM     21  C   UNL     1       5.092   1.535  -0.684  0.00  0.00    +0.000 A 
ATOM     22  C   UNL     1       5.429   0.145  -0.388  0.00  0.00    +0.000 A 
ENDBRANCH  12  13
ENDBRANCH   2  12
TORSDOF 5
