REMARK  Name = Naftazone
REMARK  1 active torsions:
REMARK  status: ('A' for Active; 'I' for Inactive)
REMARK    1  A    between atoms: N_4  and  N_5
REMARK                            x       y       z     vdW  Elec       q    Type
REMARK                         _______ _______ _______ _____ _____    ______ ____
ROOT
ATOM      1  N   UNL     1       4.560  -0.791   1.014  0.00  0.00    +0.000 NA
ATOM      2  C   UNL     1       5.193  -1.557   1.848  0.00  0.00    +0.000 C 
ATOM      3  C   UNL     1       4.584  -2.502   2.823  0.00  0.00    +0.000 C 
ATOM      4  C   UNL     1       5.330  -3.294   3.598  0.00  0.00    +0.000 C 
ATOM      5  C   UNL     1       6.788  -3.282   3.560  0.00  0.00    +0.000 A 
ATOM      6  C   UNL     1       7.511  -4.147   4.390  0.00  0.00    +0.000 A 
ATOM      7  C   UNL     1       8.908  -4.144   4.368  0.00  0.00    +0.000 A 
ATOM      8  C   UNL     1       9.592  -3.275   3.521  0.00  0.00    +0.000 A 
ATOM      9  C   UNL     1       8.882  -2.408   2.690  0.00  0.00    +0.000 A 
ATOM     10  C   UNL     1       7.482  -2.415   2.710  0.00  0.00    +0.000 A 
ATOM     11  C   UNL     1       6.728  -1.500   1.825  0.00  0.00    +0.000 C 
ATOM     12  O   UNL     1       7.322  -0.719   1.093  0.00  0.00    +0.000 OA
ENDROOT
BRANCH   1  16
ATOM     13  N   UNL     1       1.184  -0.085   0.122  0.00  0.00    +0.000 N 
ATOM     14  C   UNL     1       2.541  -0.008   0.043  0.00  0.00    +0.000 C 
ATOM     15  O   UNL     1       3.057   0.704  -0.810  0.00  0.00    +0.000 OA
ATOM     16  N   UNL     1       3.193  -0.784   0.972  0.00  0.00    +0.000 N 
ATOM     17  H   UNL     1       0.678   0.481  -0.548  0.00  0.00    +0.000 HD
ATOM     18  H   UNL     1       0.666  -0.629   0.789  0.00  0.00    +0.000 HD
ATOM     19  H   UNL     1       2.649  -1.320   1.625  0.00  0.00    +0.000 HD
ENDBRANCH   1  16
TORSDOF 1
