REMARK  Name = Nalbuphine
REMARK  5 active torsions:
REMARK  status: ('A' for Active; 'I' for Inactive)
REMARK    1  A    between atoms: O_1  and  C_2
REMARK    2  A    between atoms: C_5  and  O_6
REMARK    3  A    between atoms: C_12  and  O_13
REMARK    4  A    between atoms: N_19  and  C_20
REMARK    5  A    between atoms: C_20  and  C_21
REMARK                            x       y       z     vdW  Elec       q    Type
REMARK                         _______ _______ _______ _____ _____    ______ ____
ROOT
ATOM      1  C   UNL     1       2.936   0.075  -0.014  0.00  0.00    +0.000 C 
ATOM      2  C   UNL     1       3.216  -1.346   0.275  0.00  0.00    +0.000 C 
ATOM      3  C   UNL     1       3.950  -1.620   1.759  0.00  0.00    +0.000 C 
ATOM      4  C   UNL     1       5.368  -0.681   2.518  0.00  0.00    +0.000 C 
ATOM      5  C   UNL     1       6.892  -0.193   3.661  0.00  0.00    +0.000 C 
ATOM      6  C   UNL     1       7.183   1.247   3.188  0.00  0.00    +0.000 C 
ATOM      7  C   UNL     1       6.555   2.285   2.476  0.00  0.00    +0.000 A 
ATOM      8  C   UNL     1       6.691   3.590   2.903  0.00  0.00    +0.000 A 
ATOM      9  C   UNL     1       5.842   4.496   2.448  0.00  0.00    +0.000 A 
ATOM     10  C   UNL     1       4.745   4.094   1.653  0.00  0.00    +0.000 A 
ATOM     11  C   UNL     1       4.676   2.727   1.273  0.00  0.00    +0.000 A 
ATOM     12  C   UNL     1       5.649   1.827   1.538  0.00  0.00    +0.000 A 
ATOM     13  C   UNL     1       5.658   0.282   1.278  0.00  0.00    +0.000 C 
ATOM     14  C   UNL     1       7.344  -0.671   1.176  0.00  0.00    +0.000 C 
ATOM     15  C   UNL     1       8.772  -0.693   2.279  0.00  0.00    +0.000 C 
ATOM     16  N   UNL     1       8.384  -0.684   3.715  0.00  0.00    +0.000 NA
ATOM     17  C   UNL     1       3.889   0.726   0.954  0.00  0.00    +0.000 C 
ATOM     18  O   UNL     1       3.604   2.144   0.693  0.00  0.00    +0.000 OA
ENDROOT
BRANCH   1  19
ATOM     19  O   UNL     1       3.200   0.486  -1.357  0.00  0.00    +0.000 OA
ATOM     20  H   UNL     1       2.628   0.005  -1.977  0.00  0.00    +0.000 HD
ENDBRANCH   1  19
BRANCH   4  21
ATOM     21  O   UNL     1       5.799  -2.121   2.349  0.00  0.00    +0.000 OA
ATOM     22  H   UNL     1       5.906  -2.599   3.169  0.00  0.00    +0.000 HD
ENDBRANCH   4  21
BRANCH  10  23
ATOM     23  O   UNL     1       3.849   5.045   1.296  0.00  0.00    +0.000 OA
ATOM     24  H   UNL     1       4.227   5.906   1.566  0.00  0.00    +0.000 HD
ENDBRANCH  10  23
BRANCH  16  25
ATOM     25  C   UNL     1       9.580  -0.007   4.601  0.00  0.00    +0.000 C 
BRANCH  25  26
ATOM     26  C   UNL     1      10.691  -1.025   5.154  0.00  0.00    +0.000 C 
ATOM     27  C   UNL     1      10.667  -1.524   6.651  0.00  0.00    +0.000 C 
ATOM     28  C   UNL     1      11.008  -2.940   6.134  0.00  0.00    +0.000 C 
ATOM     29  C   UNL     1      10.460  -2.500   4.773  0.00  0.00    +0.000 C 
ENDBRANCH  25  26
ENDBRANCH  16  25
TORSDOF 5
