REMARK  Name = Naldemedine
REMARK  11 active torsions:
REMARK  status: ('A' for Active; 'I' for Inactive)
REMARK    1  A    between atoms: N_10  and  C_11
REMARK    2  A    between atoms: C_11  and  C_12
REMARK    3  A    between atoms: C_18  and  O_19
REMARK    4  A    between atoms: C_21  and  C_22
REMARK    5  A    between atoms: N_24  and  C_25
REMARK    6  A    between atoms: C_25  and  C_26
REMARK    7  A    between atoms: C_25  and  C_27
REMARK    8  A    between atoms: C_25  and  C_28
REMARK    9  A    between atoms: C_30  and  C_33
REMARK   10  A    between atoms: C_39  and  O_40
REMARK   11  A    between atoms: C_43  and  O_44
REMARK                            x       y       z     vdW  Elec       q    Type
REMARK                         _______ _______ _______ _____ _____    ______ ____
ROOT
ATOM      1  C   UNL     1       2.418  -0.216  -0.425  0.00  0.00    +0.000 C 
ATOM      2  O   UNL     1       2.723  -1.467   0.222  0.00  0.00    +0.000 OA
ATOM      3  C   UNL     1       2.998  -1.048   1.488  0.00  0.00    +0.000 A 
ATOM      4  C   UNL     1       2.743   0.300   1.716  0.00  0.00    +0.000 A 
ATOM      5  C   UNL     1       3.637   1.016   1.111  0.00  0.00    +0.000 A 
ATOM      6  C   UNL     1       2.853   1.842  -0.715  0.00  0.00    +0.000 C 
ATOM      7  C   UNL     1       2.729   3.268  -1.016  0.00  0.00    +0.000 C 
ATOM      8  N   UNL     1       1.371   3.765  -0.681  0.00  0.00    +0.000 NA
ATOM      9  C   UNL     1       0.427   2.873   0.062  0.00  0.00    +0.000 C 
ATOM     10  C   UNL     1       1.072   2.139   1.258  0.00  0.00    +0.000 C 
ATOM     11  C   UNL     1       2.247   1.259   0.853  0.00  0.00    +0.000 C 
ATOM     12  C   UNL     1       3.630   2.536  -0.095  0.00  0.00    +0.000 C 
ATOM     13  C   UNL     1       4.966   1.498  -0.940  0.00  0.00    +0.000 C 
ATOM     14  C   UNL     1       4.570   1.240  -2.410  0.00  0.00    +0.000 C 
ATOM     15  C   UNL     1       3.461   0.087  -2.020  0.00  0.00    +0.000 C 
ATOM     16  C   UNL     1       4.702   0.606   2.180  0.00  0.00    +0.000 A 
ATOM     17  C   UNL     1       4.665  -0.819   2.919  0.00  0.00    +0.000 A 
ATOM     18  C   UNL     1       3.855  -1.724   2.313  0.00  0.00    +0.000 A 
ENDROOT
BRANCH  14  19
ATOM     19  C   UNL     1       5.888   2.605  -2.657  0.00  0.00    +0.000 C 
ATOM     20  O   UNL     1       7.027   2.359  -2.210  0.00  0.00    +0.000 OA
ATOM     21  N   UNL     1       5.835   3.972  -3.279  0.00  0.00    +0.000 N 
ATOM     22  H   UNL     1       4.947   4.397  -3.484  0.00  0.00    +0.000 HD
BRANCH  21  23
ATOM     23  C   UNL     1       7.072   5.140  -3.708  0.00  0.00    +0.000 C 
ATOM     24  C   UNL     1       7.911   5.771  -2.542  0.00  0.00    +0.000 C 
ATOM     25  C   UNL     1       8.106   4.537  -4.694  0.00  0.00    +0.000 C 
BRANCH  23  26
ATOM     26  C   UNL     1       6.467   6.404  -4.449  0.00  0.00    +0.000 A 
ATOM     27  N   UNL     1       7.037   7.548  -4.829  0.00  0.00    +0.000 NA
ATOM     28  C   UNL     1       5.971   8.295  -5.328  0.00  0.00    +0.000 A 
ATOM     29  N   UNL     1       4.808   7.627  -5.290  0.00  0.00    +0.000 NA
ATOM     30  O   UNL     1       5.138   6.383  -4.738  0.00  0.00    +0.000 OA
BRANCH  28  31
ATOM     31  C   UNL     1       6.102   9.680  -5.805  0.00  0.00    +0.000 A 
ATOM     32  C   UNL     1       5.466  10.742  -5.148  0.00  0.00    +0.000 A 
ATOM     33  C   UNL     1       5.873  12.059  -5.394  0.00  0.00    +0.000 A 
ATOM     34  C   UNL     1       6.579  12.353  -6.554  0.00  0.00    +0.000 A 
ATOM     35  C   UNL     1       7.061  11.310  -7.337  0.00  0.00    +0.000 A 
ATOM     36  C   UNL     1       6.925   9.987  -6.894  0.00  0.00    +0.000 A 
ENDBRANCH  28  31
ENDBRANCH  23  26
ENDBRANCH  21  23
ENDBRANCH  14  19
BRANCH  12  37
ATOM     37  O   UNL     1       4.355   3.543   0.555  0.00  0.00    +0.000 OA
ATOM     38  H   UNL     1       3.651   4.015   1.007  0.00  0.00    +0.000 HD
ENDBRANCH  12  37
BRANCH  15  39
ATOM     39  O   UNL     1       2.509  -0.510  -2.845  0.00  0.00    +0.000 OA
ATOM     40  H   UNL     1       2.563  -0.464  -3.795  0.00  0.00    +0.000 HD
ENDBRANCH  15  39
BRANCH  18  41
ATOM     41  O   UNL     1       3.933  -3.073   2.367  0.00  0.00    +0.000 OA
ATOM     42  H   UNL     1       4.519  -3.398   3.072  0.00  0.00    +0.000 HD
ENDBRANCH  18  41
BRANCH   8  43
ATOM     43  C   UNL     1       0.687   4.471  -1.802  0.00  0.00    +0.000 C 
BRANCH  43  44
ATOM     44  C   UNL     1      -0.049   3.615  -2.810  0.00  0.00    +0.000 C 
ATOM     45  C   UNL     1      -1.566   3.676  -2.792  0.00  0.00    +0.000 C 
ATOM     46  C   UNL     1      -0.822   4.217  -3.981  0.00  0.00    +0.000 C 
ENDBRANCH  43  44
ENDBRANCH   8  43
TORSDOF 9
