REMARK  Name = Nalidixic acid
REMARK  5 active torsions:
REMARK  status: ('A' for Active; 'I' for Inactive)
REMARK    1  A    between atoms: C_1  and  C_2
REMARK    2  A    between atoms: C_2  and  N_3
REMARK    3  A    between atoms: C_5  and  C_6
REMARK    4  A    between atoms: C_6  and  O_7
REMARK    5  A    between atoms: C_14  and  C_15
REMARK                            x       y       z     vdW  Elec       q    Type
REMARK                         _______ _______ _______ _____ _____    ______ ____
ROOT
ATOM      1  N   UNL     1       3.054  -0.723   1.158  0.00  0.00    +0.000 N 
ATOM      2  C   UNL     1       2.916  -2.099   1.282  0.00  0.00    +0.000 A 
ATOM      3  C   UNL     1       3.170  -2.821   2.381  0.00  0.00    +0.000 A 
ATOM      4  C   UNL     1       3.650  -2.084   3.558  0.00  0.00    +0.000 A 
ATOM      5  O   UNL     1       3.920  -2.685   4.598  0.00  0.00    +0.000 OA
ATOM      6  C   UNL     1       3.852  -0.634   3.440  0.00  0.00    +0.000 A 
ATOM      7  C   UNL     1       3.549   0.034   2.246  0.00  0.00    +0.000 A 
ATOM      8  N   UNL     1       3.777   1.365   2.140  0.00  0.00    +0.000 NA
ATOM      9  C   UNL     1       4.445   1.987   3.151  0.00  0.00    +0.000 A 
ATOM     10  C   UNL     1       4.639   3.471   3.072  0.00  0.00    +0.000 C 
ATOM     11  C   UNL     1       4.883   1.329   4.292  0.00  0.00    +0.000 A 
ATOM     12  C   UNL     1       4.458   0.034   4.497  0.00  0.00    +0.000 A 
ENDROOT
BRANCH   1  14
ATOM     13  C   UNL     1       1.074   0.016  -0.069  0.00  0.00    +0.000 C 
ATOM     14  C   UNL     1       2.598   0.002  -0.035  0.00  0.00    +0.000 C 
ENDBRANCH   1  14
BRANCH   3  15
ATOM     15  C   UNL     1       2.961  -4.282   2.370  0.00  0.00    +0.000 C 
ATOM     16  O   UNL     1       2.542  -4.888   1.401  0.00  0.00    +0.000 OA
BRANCH  15  17
ATOM     17  O   UNL     1       3.271  -4.901   3.533  0.00  0.00    +0.000 OA
ATOM     18  H   UNL     1       3.602  -4.296   4.243  0.00  0.00    +0.000 HD
ENDBRANCH  15  17
ENDBRANCH   3  15
TORSDOF 3
