REMARK  Name = Nalmefene
REMARK  4 active torsions:
REMARK  status: ('A' for Active; 'I' for Inactive)
REMARK    1  A    between atoms: O_1  and  C_2
REMARK    2  A    between atoms: N_8  and  C_9
REMARK    3  A    between atoms: C_9  and  C_10
REMARK    4  A    between atoms: C_24  and  O_25
REMARK                            x       y       z     vdW  Elec       q    Type
REMARK                         _______ _______ _______ _____ _____    ______ ____
ROOT
ATOM      1  C   UNL     1       2.444  -0.161   0.169  0.00  0.00    +0.000 A 
ATOM      2  C   UNL     1       3.232   1.015   0.070  0.00  0.00    +0.000 A 
ATOM      3  C   UNL     1       4.684   0.930  -0.063  0.00  0.00    +0.000 A 
ATOM      4  C   UNL     1       5.332  -0.300  -0.161  0.00  0.00    +0.000 A 
ATOM      5  C   UNL     1       6.802  -0.797  -0.581  0.00  0.00    +0.000 C 
ATOM      6  C   UNL     1       7.170  -2.613  -0.944  0.00  0.00    +0.000 C 
ATOM      7  N   UNL     1       6.817  -3.503  -2.498  0.00  0.00    +0.000 NA
ATOM      8  C   UNL     1       5.426  -3.783  -2.215  0.00  0.00    +0.000 C 
ATOM      9  C   UNL     1       4.729  -2.632  -1.692  0.00  0.00    +0.000 C 
ATOM     10  C   UNL     1       4.894  -2.717  -0.135  0.00  0.00    +0.000 C 
ATOM     11  C   UNL     1       3.799  -3.436   0.615  0.00  0.00    +0.000 C 
ATOM     12  O   UNL     1       2.594  -2.659   0.299  0.00  0.00    +0.000 OA
ATOM     13  C   UNL     1       3.086  -1.333   0.271  0.00  0.00    +0.000 A 
ATOM     14  C   UNL     1       4.484  -1.362   0.130  0.00  0.00    +0.000 A 
ATOM     15  C   UNL     1       3.919  -4.895   0.198  0.00  0.00    +0.000 C 
ATOM     16  C   UNL     1       2.934  -5.548  -0.459  0.00  0.00    +0.000 C 
ATOM     17  C   UNL     1       5.309  -5.555   0.347  0.00  0.00    +0.000 C 
ATOM     18  C   UNL     1       6.491  -4.613   0.707  0.00  0.00    +0.000 C 
ATOM     19  C   UNL     1       6.318  -3.126   0.330  0.00  0.00    +0.000 C 
ENDROOT
BRANCH   1  20
ATOM     20  O   UNL     1       1.069  -0.115   0.136  0.00  0.00    +0.000 OA
ATOM     21  H   UNL     1       0.763   0.789   0.050  0.00  0.00    +0.000 HD
ENDBRANCH   1  20
BRANCH  19  22
ATOM     22  O   UNL     1       6.590  -2.405   1.568  0.00  0.00    +0.000 OA
ATOM     23  H   UNL     1       7.285  -2.820   2.105  0.00  0.00    +0.000 HD
ENDBRANCH  19  22
BRANCH   7  24
ATOM     24  C   UNL     1       7.016  -5.155  -2.991  0.00  0.00    +0.000 C 
BRANCH  24  25
ATOM     25  C   UNL     1       6.880  -5.644  -4.575  0.00  0.00    +0.000 C 
ATOM     26  C   UNL     1       6.508  -7.123  -5.027  0.00  0.00    +0.000 C 
ATOM     27  C   UNL     1       5.608  -5.997  -5.411  0.00  0.00    +0.000 C 
ENDBRANCH  24  25
ENDBRANCH   7  24
TORSDOF 4
