REMARK  Name = Naloxegol
REMARK  27 active torsions:
REMARK  status: ('A' for Active; 'I' for Inactive)
REMARK    1  A    between atoms: C_1  and  O_2
REMARK    2  A    between atoms: O_2  and  C_3
REMARK    3  A    between atoms: C_3  and  C_4
REMARK    4  A    between atoms: C_4  and  O_5
REMARK    5  A    between atoms: O_5  and  C_6
REMARK    6  A    between atoms: C_6  and  C_7
REMARK    7  A    between atoms: C_7  and  O_8
REMARK    8  A    between atoms: O_8  and  C_9
REMARK    9  A    between atoms: C_9  and  C_10
REMARK   10  A    between atoms: C_10  and  O_11
REMARK   11  A    between atoms: O_11  and  C_12
REMARK   12  A    between atoms: C_12  and  C_13
REMARK   13  A    between atoms: C_13  and  O_14
REMARK   14  A    between atoms: O_14  and  C_15
REMARK   15  A    between atoms: C_15  and  C_16
REMARK   16  A    between atoms: C_16  and  O_17
REMARK   17  A    between atoms: O_17  and  C_18
REMARK   18  A    between atoms: C_18  and  C_19
REMARK   19  A    between atoms: C_19  and  O_20
REMARK   20  A    between atoms: O_20  and  C_21
REMARK   21  A    between atoms: C_21  and  C_22
REMARK   22  A    between atoms: C_22  and  O_23
REMARK   23  A    between atoms: O_23  and  C_24
REMARK   24  A    between atoms: C_27  and  O_28
REMARK   25  A    between atoms: C_34  and  O_35
REMARK   26  A    between atoms: N_41  and  C_42
REMARK   27  A    between atoms: C_42  and  C_43
REMARK                            x       y       z     vdW  Elec       q    Type
REMARK                         _______ _______ _______ _____ _____    ______ ____
ROOT
ATOM      1  C   UNL     1      24.119  11.348  10.050  0.00  0.00    +0.000 C 
ATOM      2  C   UNL     1      24.436  10.071  10.738  0.00  0.00    +0.000 C 
ATOM      3  C   UNL     1      25.178  10.261  12.243  0.00  0.00    +0.000 C 
ATOM      4  C   UNL     1      26.602  11.392  12.675  0.00  0.00    +0.000 C 
ATOM      5  C   UNL     1      28.133  12.216  13.604  0.00  0.00    +0.000 C 
ATOM      6  C   UNL     1      28.430  13.426  12.690  0.00  0.00    +0.000 C 
ATOM      7  C   UNL     1      27.806  14.194  11.683  0.00  0.00    +0.000 A 
ATOM      8  C   UNL     1      27.932  15.562  11.677  0.00  0.00    +0.000 A 
ATOM      9  C   UNL     1      27.083  16.287  10.960  0.00  0.00    +0.000 A 
ATOM     10  C   UNL     1      25.982  15.650  10.346  0.00  0.00    +0.000 A 
ATOM     11  C   UNL     1      25.919  14.239  10.435  0.00  0.00    +0.000 A 
ATOM     12  C   UNL     1      26.894  13.457  10.943  0.00  0.00    +0.000 A 
ATOM     13  C   UNL     1      26.892  11.911  11.194  0.00  0.00    +0.000 C 
ATOM     14  C   UNL     1      28.578  10.968  11.416  0.00  0.00    +0.000 C 
ATOM     15  C   UNL     1      30.012  11.285  12.482  0.00  0.00    +0.000 C 
ATOM     16  N   UNL     1      29.632  11.763  13.836  0.00  0.00    +0.000 NA
ATOM     17  C   UNL     1      25.109  12.239  10.772  0.00  0.00    +0.000 C 
ATOM     18  O   UNL     1      24.817  13.519  10.135  0.00  0.00    +0.000 OA
ENDROOT
BRANCH  10  19
ATOM     19  O   UNL     1      25.078  16.432   9.708  0.00  0.00    +0.000 OA
ATOM     20  H   UNL     1      25.449  17.336   9.678  0.00  0.00    +0.000 HD
ENDBRANCH  10  19
BRANCH   4  21
ATOM     21  O   UNL     1      27.024   9.970  12.959  0.00  0.00    +0.000 OA
ATOM     22  H   UNL     1      27.117   9.761  13.886  0.00  0.00    +0.000 HD
ENDBRANCH   4  21
BRANCH  16  23
ATOM     23  C   UNL     1      30.842  12.708  14.432  0.00  0.00    +0.000 C 
BRANCH  23  24
ATOM     24  C   UNL     1      31.912  11.922  15.276  0.00  0.00    +0.000 C 
ATOM     25  C   UNL     1      33.061  12.318  15.884  0.00  0.00    +0.000 C 
ENDBRANCH  23  24
ENDBRANCH  16  23
BRANCH   1  26
ATOM     26  O   UNL     1      24.280  11.334   8.622  0.00  0.00    +0.000 OA
BRANCH  26  27
ATOM     27  C   UNL     1      23.496  12.340   7.926  0.00  0.00    +0.000 C 
BRANCH  27  28
ATOM     28  C   UNL     1      24.084  12.526   6.537  0.00  0.00    +0.000 C 
BRANCH  28  29
ATOM     29  O   UNL     1      23.353  13.518   5.820  0.00  0.00    +0.000 OA
BRANCH  29  30
ATOM     30  C   UNL     1      23.906  13.684   4.519  0.00  0.00    +0.000 C 
BRANCH  30  31
ATOM     31  C   UNL     1      23.117  14.743   3.778  0.00  0.00    +0.000 C 
BRANCH  31  32
ATOM     32  O   UNL     1      23.658  14.890   2.470  0.00  0.00    +0.000 OA
BRANCH  32  33
ATOM     33  C   UNL     1      22.933  15.877   1.746  0.00  0.00    +0.000 C 
BRANCH  33  34
ATOM     34  C   UNL     1      23.532  16.007   0.361  0.00  0.00    +0.000 C 
BRANCH  34  35
ATOM     35  O   UNL     1      22.809  16.995  -0.365  0.00  0.00    +0.000 OA
BRANCH  35  36
ATOM     36  C   UNL     1      23.350  17.139  -1.673  0.00  0.00    +0.000 C 
BRANCH  36  37
ATOM     37  C   UNL     1      22.560  18.195  -2.419  0.00  0.00    +0.000 C 
BRANCH  37  38
ATOM     38  O   UNL     1      23.101  18.341  -3.728  0.00  0.00    +0.000 OA
BRANCH  38  39
ATOM     39  C   UNL     1      22.377  19.329  -4.453  0.00  0.00    +0.000 C 
BRANCH  39  40
ATOM     40  C   UNL     1      22.976  19.460  -5.840  0.00  0.00    +0.000 C 
BRANCH  40  41
ATOM     41  O   UNL     1      22.253  20.448  -6.566  0.00  0.00    +0.000 OA
BRANCH  41  42
ATOM     42  C   UNL     1      22.794  20.593  -7.874  0.00  0.00    +0.000 C 
BRANCH  42  43
ATOM     43  C   UNL     1      22.003  21.650  -8.622  0.00  0.00    +0.000 C 
BRANCH  43  44
ATOM     44  O   UNL     1      22.544  21.797  -9.931  0.00  0.00    +0.000 OA
BRANCH  44  45
ATOM     45  C   UNL     1      21.819  22.785 -10.657  0.00  0.00    +0.000 C 
BRANCH  45  46
ATOM     46  C   UNL     1      22.417  22.919 -12.046  0.00  0.00    +0.000 C 
BRANCH  46  48
ATOM     47  C   UNL     1      22.234  24.054 -14.083  0.00  0.00    +0.000 C 
ATOM     48  O   UNL     1      21.695  23.907 -12.777  0.00  0.00    +0.000 OA
ENDBRANCH  46  48
ENDBRANCH  45  46
ENDBRANCH  44  45
ENDBRANCH  43  44
ENDBRANCH  42  43
ENDBRANCH  41  42
ENDBRANCH  40  41
ENDBRANCH  39  40
ENDBRANCH  38  39
ENDBRANCH  37  38
ENDBRANCH  36  37
ENDBRANCH  35  36
ENDBRANCH  34  35
ENDBRANCH  33  34
ENDBRANCH  32  33
ENDBRANCH  31  32
ENDBRANCH  30  31
ENDBRANCH  29  30
ENDBRANCH  28  29
ENDBRANCH  27  28
ENDBRANCH  26  27
ENDBRANCH   1  26
TORSDOF 26
