REMARK  Name = Naloxone
REMARK  4 active torsions:
REMARK  status: ('A' for Active; 'I' for Inactive)
REMARK    1  A    between atoms: O_1  and  C_2
REMARK    2  A    between atoms: N_8  and  C_9
REMARK    3  A    between atoms: C_9  and  C_10
REMARK    4  A    between atoms: C_23  and  O_24
REMARK                            x       y       z     vdW  Elec       q    Type
REMARK                         _______ _______ _______ _____ _____    ______ ____
ROOT
ATOM      1  C   UNL     1       2.321  -0.136   0.121  0.00  0.00    +0.000 A 
ATOM      2  C   UNL     1       3.116   1.022   0.031  0.00  0.00    +0.000 A 
ATOM      3  C   UNL     1       4.564   0.946  -0.092  0.00  0.00    +0.000 A 
ATOM      4  C   UNL     1       5.214  -0.299  -0.193  0.00  0.00    +0.000 A 
ATOM      5  C   UNL     1       6.691  -0.775  -0.588  0.00  0.00    +0.000 C 
ATOM      6  C   UNL     1       7.076  -2.587  -0.952  0.00  0.00    +0.000 C 
ATOM      7  N   UNL     1       6.751  -3.486  -2.508  0.00  0.00    +0.000 NA
ATOM      8  C   UNL     1       5.360  -3.788  -2.238  0.00  0.00    +0.000 C 
ATOM      9  C   UNL     1       4.644  -2.637  -1.737  0.00  0.00    +0.000 C 
ATOM     10  C   UNL     1       4.775  -2.722  -0.186  0.00  0.00    +0.000 C 
ATOM     11  C   UNL     1       3.651  -3.431   0.527  0.00  0.00    +0.000 C 
ATOM     12  O   UNL     1       2.474  -2.629   0.249  0.00  0.00    +0.000 OA
ATOM     13  C   UNL     1       2.981  -1.331   0.218  0.00  0.00    +0.000 A 
ATOM     14  C   UNL     1       4.367  -1.346   0.079  0.00  0.00    +0.000 A 
ATOM     15  C   UNL     1       3.832  -4.893   0.115  0.00  0.00    +0.000 C 
ATOM     16  O   UNL     1       2.902  -5.553  -0.442  0.00  0.00    +0.000 OA
ATOM     17  C   UNL     1       5.217  -5.557   0.292  0.00  0.00    +0.000 C 
ATOM     18  C   UNL     1       6.378  -4.609   0.669  0.00  0.00    +0.000 C 
ATOM     19  C   UNL     1       6.196  -3.119   0.307  0.00  0.00    +0.000 C 
ENDROOT
BRANCH   1  20
ATOM     20  O   UNL     1       0.961  -0.117   0.091  0.00  0.00    +0.000 OA
ATOM     21  H   UNL     1       0.637   0.793   0.008  0.00  0.00    +0.000 HD
ENDBRANCH   1  20
BRANCH  19  22
ATOM     22  O   UNL     1       6.424  -2.422   1.561  0.00  0.00    +0.000 OA
ATOM     23  H   UNL     1       7.166  -2.788   2.072  0.00  0.00    +0.000 HD
ENDBRANCH  19  22
BRANCH   7  24
ATOM     24  C   UNL     1       7.020  -5.119  -2.991  0.00  0.00    +0.000 C 
BRANCH  24  25
ATOM     25  C   UNL     1       6.919  -5.635  -4.530  0.00  0.00    +0.000 C 
ATOM     26  C   UNL     1       7.092  -6.913  -4.986  0.00  0.00    +0.000 C 
ENDBRANCH  24  25
ENDBRANCH   7  24
TORSDOF 4
