REMARK  Name = Naltrexone
REMARK  4 active torsions:
REMARK  status: ('A' for Active; 'I' for Inactive)
REMARK    1  A    between atoms: C_5  and  O_6
REMARK    2  A    between atoms: N_14  and  C_15
REMARK    3  A    between atoms: C_15  and  C_16
REMARK    4  A    between atoms: C_22  and  O_23
REMARK                            x       y       z     vdW  Elec       q    Type
REMARK                         _______ _______ _______ _____ _____    ______ ____
ROOT
ATOM      1  C   UNL     1       2.616  -0.587  -0.042  0.00  0.00    +0.000 C 
ATOM      2  O   UNL     1       2.860   0.451  -1.016  0.00  0.00    +0.000 OA
ATOM      3  C   UNL     1       3.040  -0.324  -2.091  0.00  0.00    +0.000 A 
ATOM      4  C   UNL     1       2.990   0.127  -3.414  0.00  0.00    +0.000 A 
ATOM      5  C   UNL     1       3.116  -0.886  -4.343  0.00  0.00    +0.000 A 
ATOM      6  C   UNL     1       3.119  -2.256  -3.921  0.00  0.00    +0.000 A 
ATOM      7  C   UNL     1       3.061  -2.647  -2.579  0.00  0.00    +0.000 A 
ATOM      8  C   UNL     1       3.270  -1.690  -1.705  0.00  0.00    +0.000 A 
ATOM      9  C   UNL     1       3.477  -2.238  -0.281  0.00  0.00    +0.000 C 
ATOM     10  C   UNL     1       4.375  -4.177   0.216  0.00  0.00    +0.000 C 
ATOM     11  C   UNL     1       3.150  -5.583   0.448  0.00  0.00    +0.000 C 
ATOM     12  N   UNL     1       2.050  -4.787   0.892  0.00  0.00    +0.000 NA
ATOM     13  C   UNL     1       2.502  -3.646   0.195  0.00  0.00    +0.000 C 
ATOM     14  C   UNL     1       2.874  -3.904  -1.732  0.00  0.00    +0.000 C 
ATOM     15  C   UNL     1       1.898  -2.422   0.399  0.00  0.00    +0.000 C 
ATOM     16  C   UNL     1       1.758  -1.872   1.861  0.00  0.00    +0.000 C 
ATOM     17  C   UNL     1       2.410  -0.590   2.330  0.00  0.00    +0.000 C 
ATOM     18  C   UNL     1       2.884   0.149   1.192  0.00  0.00    +0.000 C 
ATOM     19  O   UNL     1       3.543   1.172   1.301  0.00  0.00    +0.000 OA
ENDROOT
BRANCH   4  20
ATOM     20  O   UNL     1       2.902   1.391  -3.940  0.00  0.00    +0.000 OA
ATOM     21  H   UNL     1       2.819   2.120  -3.301  0.00  0.00    +0.000 HD
ENDBRANCH   4  20
BRANCH  15  22
ATOM     22  O   UNL     1       0.660  -2.507  -0.268  0.00  0.00    +0.000 OA
ATOM     23  H   UNL     1       0.807  -2.815  -1.175  0.00  0.00    +0.000 HD
ENDBRANCH  15  22
BRANCH  12  24
ATOM     24  C   UNL     1       2.093  -4.561   2.407  0.00  0.00    +0.000 C 
BRANCH  24  25
ATOM     25  C   UNL     1       3.454  -4.286   3.109  0.00  0.00    +0.000 C 
ATOM     26  C   UNL     1       4.222  -2.951   3.451  0.00  0.00    +0.000 C 
ATOM     27  C   UNL     1       3.727  -3.856   4.525  0.00  0.00    +0.000 C 
ENDBRANCH  24  25
ENDBRANCH  12  24
TORSDOF 4
