REMARK  Name = Nandrolone decanoate
REMARK  12 active torsions:
REMARK  status: ('A' for Active; 'I' for Inactive)
REMARK    1  A    between atoms: C_5  and  O_6
REMARK    2  A    between atoms: O_6  and  C_7
REMARK    3  A    between atoms: C_7  and  C_9
REMARK    4  A    between atoms: C_9  and  C_10
REMARK    5  A    between atoms: C_10  and  C_11
REMARK    6  A    between atoms: C_11  and  C_12
REMARK    7  A    between atoms: C_12  and  C_13
REMARK    8  A    between atoms: C_13  and  C_14
REMARK    9  A    between atoms: C_14  and  C_15
REMARK   10  A    between atoms: C_15  and  C_16
REMARK   11  A    between atoms: C_16  and  C_17
REMARK   12  A    between atoms: C_18  and  C_19
REMARK                            x       y       z     vdW  Elec       q    Type
REMARK                         _______ _______ _______ _____ _____    ______ ____
ROOT
ATOM      1  C   UNL     1       1.662   0.012  -0.080  0.00  0.00    +0.000 C 
ATOM      2  C   UNL     1       2.143   0.019  -1.423  0.00  0.00    +0.000 C 
ATOM      3  C   UNL     1       3.261  -0.313  -0.483  0.00  0.00    +0.000 C 
ATOM      4  C   UNL     1       2.604  -0.784   1.442  0.00  0.00    +0.000 C 
ATOM      5  C   UNL     1       2.543  -1.567   0.335  0.00  0.00    +0.000 C 
ATOM      6  C   UNL     1       1.900  -2.793  -0.084  0.00  0.00    +0.000 C 
ATOM      7  C   UNL     1       4.302  -1.635   0.818  0.00  0.00    +0.000 C 
ATOM      8  C   UNL     1       4.706  -0.163   1.514  0.00  0.00    +0.000 C 
ATOM      9  C   UNL     1       3.945   1.277   1.053  0.00  0.00    +0.000 C 
ATOM     10  C   UNL     1       4.341   2.393   1.909  0.00  0.00    +0.000 C 
ATOM     11  C   UNL     1       5.712   2.157   2.043  0.00  0.00    +0.000 C 
ATOM     12  C   UNL     1       6.903   1.614   2.521  0.00  0.00    +0.000 C 
ATOM     13  C   UNL     1       7.401   2.959   1.611  0.00  0.00    +0.000 C 
ATOM     14  O   UNL     1       8.545   2.976   1.317  0.00  0.00    +0.000 OA
ATOM     15  C   UNL     1       5.961   4.036   0.882  0.00  0.00    +0.000 C 
ATOM     16  C   UNL     1       4.558   3.660   1.042  0.00  0.00    +0.000 C 
ATOM     17  C   UNL     1       3.004   3.962   0.691  0.00  0.00    +0.000 C 
ATOM     18  C   UNL     1       2.156   2.760   0.067  0.00  0.00    +0.000 C 
ATOM     19  C   UNL     1       2.389   1.428   0.785  0.00  0.00    +0.000 C 
ENDROOT
BRANCH   4  20
ATOM     20  O   UNL     1       2.805  -2.096   2.558  0.00  0.00    +0.000 OA
BRANCH  20  21
ATOM     21  C   UNL     1       2.280  -2.316   3.864  0.00  0.00    +0.000 C 
ATOM     22  O   UNL     1       1.515  -1.518   4.403  0.00  0.00    +0.000 OA
BRANCH  21  23
ATOM     23  C   UNL     1       2.715  -3.673   4.676  0.00  0.00    +0.000 C 
BRANCH  23  24
ATOM     24  C   UNL     1       2.215  -3.797   6.194  0.00  0.00    +0.000 C 
BRANCH  24  25
ATOM     25  C   UNL     1       2.697  -5.065   6.966  0.00  0.00    +0.000 C 
BRANCH  25  26
ATOM     26  C   UNL     1       2.196  -5.107   8.427  0.00  0.00    +0.000 C 
BRANCH  26  27
ATOM     27  C   UNL     1       2.692  -6.360   9.158  0.00  0.00    +0.000 C 
BRANCH  27  28
ATOM     28  C   UNL     1       2.192  -6.388  10.600  0.00  0.00    +0.000 C 
BRANCH  28  29
ATOM     29  C   UNL     1       2.692  -7.637  11.315  0.00  0.00    +0.000 C 
BRANCH  29  30
ATOM     30  C   UNL     1       2.194  -7.667  12.754  0.00  0.00    +0.000 C 
ATOM     31  C   UNL     1       2.695  -8.912  13.461  0.00  0.00    +0.000 C 
ENDBRANCH  29  30
ENDBRANCH  28  29
ENDBRANCH  27  28
ENDBRANCH  26  27
ENDBRANCH  25  26
ENDBRANCH  24  25
ENDBRANCH  23  24
ENDBRANCH  21  23
ENDBRANCH  20  21
ENDBRANCH   4  20
TORSDOF 10
