REMARK  Name = Nandrolone phenpropionate
REMARK  6 active torsions:
REMARK  status: ('A' for Active; 'I' for Inactive)
REMARK    1  A    between atoms: C_5  and  O_6
REMARK    2  A    between atoms: O_6  and  C_7
REMARK    3  A    between atoms: C_7  and  C_9
REMARK    4  A    between atoms: C_9  and  C_10
REMARK    5  A    between atoms: C_10  and  C_11
REMARK    6  A    between atoms: C_17  and  C_18
REMARK                            x       y       z     vdW  Elec       q    Type
REMARK                         _______ _______ _______ _____ _____    ______ ____
ROOT
ATOM      1  C   UNL     1       1.621  -0.148  -0.163  0.00  0.00    +0.000 C 
ATOM      2  C   UNL     1       2.101  -0.141  -1.506  0.00  0.00    +0.000 C 
ATOM      3  C   UNL     1       3.220  -0.473  -0.567  0.00  0.00    +0.000 C 
ATOM      4  C   UNL     1       2.562  -0.941   1.358  0.00  0.00    +0.000 C 
ATOM      5  C   UNL     1       2.502  -1.727   0.252  0.00  0.00    +0.000 C 
ATOM      6  C   UNL     1       1.859  -2.953  -0.166  0.00  0.00    +0.000 C 
ATOM      7  C   UNL     1       4.261  -1.795   0.735  0.00  0.00    +0.000 C 
ATOM      8  C   UNL     1       4.665  -0.324   1.431  0.00  0.00    +0.000 C 
ATOM      9  C   UNL     1       3.904   1.117   0.971  0.00  0.00    +0.000 C 
ATOM     10  C   UNL     1       4.299   2.232   1.827  0.00  0.00    +0.000 C 
ATOM     11  C   UNL     1       5.670   1.996   1.960  0.00  0.00    +0.000 C 
ATOM     12  C   UNL     1       6.861   1.453   2.439  0.00  0.00    +0.000 C 
ATOM     13  C   UNL     1       7.360   2.798   1.528  0.00  0.00    +0.000 C 
ATOM     14  O   UNL     1       8.504   2.815   1.234  0.00  0.00    +0.000 OA
ATOM     15  C   UNL     1       5.919   3.875   0.800  0.00  0.00    +0.000 C 
ATOM     16  C   UNL     1       4.517   3.499   0.959  0.00  0.00    +0.000 C 
ATOM     17  C   UNL     1       2.962   3.802   0.608  0.00  0.00    +0.000 C 
ATOM     18  C   UNL     1       2.114   2.600  -0.016  0.00  0.00    +0.000 C 
ATOM     19  C   UNL     1       2.348   1.268   0.702  0.00  0.00    +0.000 C 
ENDROOT
BRANCH   4  20
ATOM     20  O   UNL     1       2.766  -2.246   2.476  0.00  0.00    +0.000 OA
BRANCH  20  21
ATOM     21  C   UNL     1       2.248  -2.465   3.784  0.00  0.00    +0.000 C 
ATOM     22  O   UNL     1       1.478  -1.676   4.327  0.00  0.00    +0.000 OA
BRANCH  21  23
ATOM     23  C   UNL     1       2.690  -3.817   4.574  0.00  0.00    +0.000 C 
BRANCH  23  24
ATOM     24  C   UNL     1       2.214  -3.961   6.093  0.00  0.00    +0.000 C 
BRANCH  24  25
ATOM     25  C   UNL     1       2.645  -5.229   6.862  0.00  0.00    +0.000 A 
ATOM     26  C   UNL     1       2.412  -6.503   6.326  0.00  0.00    +0.000 A 
ATOM     27  C   UNL     1       2.566  -7.661   7.100  0.00  0.00    +0.000 A 
ATOM     28  C   UNL     1       3.067  -7.583   8.395  0.00  0.00    +0.000 A 
ATOM     29  C   UNL     1       3.346  -6.334   8.943  0.00  0.00    +0.000 A 
ATOM     30  C   UNL     1       3.122  -5.166   8.190  0.00  0.00    +0.000 A 
ENDBRANCH  24  25
ENDBRANCH  23  24
ENDBRANCH  21  23
ENDBRANCH  20  21
ENDBRANCH   4  20
TORSDOF 5
