REMARK  Name = Naphazoline
REMARK  2 active torsions:
REMARK  status: ('A' for Active; 'I' for Inactive)
REMARK    1  A    between atoms: C_1  and  C_2
REMARK    2  A    between atoms: C_1  and  C_7
REMARK                            x       y       z     vdW  Elec       q    Type
REMARK                         _______ _______ _______ _____ _____    ______ ____
ROOT
ATOM      1  C   UNL     1       2.519  -0.069   0.090  0.00  0.00    +0.000 A 
ATOM      2  C   UNL     1       3.265  -1.260   0.037  0.00  0.00    +0.000 A 
ATOM      3  C   UNL     1       4.652  -1.257   0.100  0.00  0.00    +0.000 A 
ATOM      4  C   UNL     1       5.332  -0.051   0.167  0.00  0.00    +0.000 A 
ATOM      5  C   UNL     1       4.638   1.164   0.149  0.00  0.00    +0.000 A 
ATOM      6  C   UNL     1       5.352   2.371   0.150  0.00  0.00    +0.000 A 
ATOM      7  C   UNL     1       4.692   3.597   0.121  0.00  0.00    +0.000 A 
ATOM      8  C   UNL     1       3.304   3.630   0.098  0.00  0.00    +0.000 A 
ATOM      9  C   UNL     1       2.577   2.437   0.102  0.00  0.00    +0.000 A 
ATOM     10  C   UNL     1       3.215   1.175   0.119  0.00  0.00    +0.000 A 
ENDROOT
BRANCH   1  11
ATOM     11  C   UNL     1       0.995  -0.109   0.108  0.00  0.00    +0.000 C 
BRANCH  11  12
ATOM     12  C   UNL     1       0.378  -1.492   0.103  0.00  0.00    +0.000 C 
ATOM     13  N   UNL     1      -0.307  -1.930  -0.927  0.00  0.00    +0.000 NA
ATOM     14  C   UNL     1      -0.670  -3.327  -0.542  0.00  0.00    +0.000 C 
ATOM     15  C   UNL     1       0.282  -3.704   0.596  0.00  0.00    +0.000 C 
ATOM     16  N   UNL     1       0.545  -2.390   1.136  0.00  0.00    +0.000 N 
ATOM     17  H   UNL     1       1.304  -2.260   1.795  0.00  0.00    +0.000 HD
ENDBRANCH  11  12
ENDBRANCH   1  11
TORSDOF 2
