REMARK  Name = Naproxen
REMARK  6 active torsions:
REMARK  status: ('A' for Active; 'I' for Inactive)
REMARK    1  A    between atoms: C_1  and  O_2
REMARK    2  A    between atoms: O_2  and  C_3
REMARK    3  A    between atoms: C_10  and  C_13
REMARK    4  A    between atoms: C_13  and  C_14
REMARK    5  A    between atoms: C_13  and  C_15
REMARK    6  A    between atoms: C_15  and  O_16
REMARK                            x       y       z     vdW  Elec       q    Type
REMARK                         _______ _______ _______ _____ _____    ______ ____
ROOT
ATOM      1  C   UNL     1       8.677  -5.487  -6.769  0.00  0.00    +0.000 A 
ATOM      2  C   UNL     1       9.299  -6.296  -5.814  0.00  0.00    +0.000 A 
ATOM      3  C   UNL     1       8.837  -6.327  -4.487  0.00  0.00    +0.000 A 
ATOM      4  C   UNL     1       7.733  -5.533  -4.129  0.00  0.00    +0.000 A 
ATOM      5  C   UNL     1       7.122  -4.719  -5.091  0.00  0.00    +0.000 A 
ATOM      6  C   UNL     1       7.581  -4.708  -6.408  0.00  0.00    +0.000 A 
ATOM      7  C   UNL     1       7.252  -5.567  -2.812  0.00  0.00    +0.000 A 
ATOM      8  C   UNL     1       7.860  -6.345  -1.810  0.00  0.00    +0.000 A 
ATOM      9  C   UNL     1       8.930  -7.162  -2.203  0.00  0.00    +0.000 A 
ATOM     10  C   UNL     1       9.428  -7.138  -3.510  0.00  0.00    +0.000 A 
ENDROOT
BRANCH   1  12
ATOM     11  C   UNL     1       9.224  -4.351  -8.754  0.00  0.00    +0.000 C 
ATOM     12  O   UNL     1       9.151  -5.587  -8.048  0.00  0.00    +0.000 OA
ENDBRANCH   1  12
BRANCH   8  13
ATOM     13  C   UNL     1       7.353  -6.335  -0.360  0.00  0.00    +0.000 C 
ATOM     14  C   UNL     1       6.479  -5.106  -0.061  0.00  0.00    +0.000 C 
BRANCH  13  15
ATOM     15  C   UNL     1       8.480  -6.508   0.681  0.00  0.00    +0.000 C 
ATOM     16  O   UNL     1       9.193  -7.507   0.747  0.00  0.00    +0.000 OA
BRANCH  15  17
ATOM     17  O   UNL     1       8.667  -5.511   1.572  0.00  0.00    +0.000 OA
ATOM     18  H   UNL     1       8.089  -4.732   1.516  0.00  0.00    +0.000 HD
ENDBRANCH  15  17
ENDBRANCH  13  15
ENDBRANCH   8  13
TORSDOF 4
