REMARK  Name = Naratriptan
REMARK  7 active torsions:
REMARK  status: ('A' for Active; 'I' for Inactive)
REMARK    1  A    between atoms: C_1  and  N_2
REMARK    2  A    between atoms: N_2  and  S_3
REMARK    3  A    between atoms: S_3  and  C_6
REMARK    4  A    between atoms: C_6  and  C_7
REMARK    5  A    between atoms: C_7  and  C_8
REMARK    6  A    between atoms: C_14  and  C_15
REMARK    7  A    between atoms: N_18  and  C_19
REMARK                            x       y       z     vdW  Elec       q    Type
REMARK                         _______ _______ _______ _____ _____    ______ ____
ROOT
ATOM      1  C   UNL     1       6.849  -2.047   2.730  0.00  0.00    +0.000 A 
ATOM      2  C   UNL     1       7.579  -1.056   3.375  0.00  0.00    +0.000 A 
ATOM      3  C   UNL     1       8.969  -0.835   3.262  0.00  0.00    +0.000 A 
ATOM      4  C   UNL     1       9.673  -1.899   2.718  0.00  0.00    +0.000 A 
ATOM      5  N   UNL     1      10.996  -1.525   2.742  0.00  0.00    +0.000 N 
ATOM      6  C   UNL     1      11.120  -0.200   3.098  0.00  0.00    +0.000 A 
ATOM      7  C   UNL     1       9.868   0.307   3.417  0.00  0.00    +0.000 A 
ATOM      8  C   UNL     1       9.011  -3.069   2.276  0.00  0.00    +0.000 A 
ATOM      9  C   UNL     1       7.592  -3.098   2.239  0.00  0.00    +0.000 A 
ATOM     10  H   UNL     1      11.760  -2.106   2.429  0.00  0.00    +0.000 HD
ENDROOT
BRANCH   7  11
ATOM     11  C   UNL     1       9.569   1.827   3.527  0.00  0.00    +0.000 C 
ATOM     12  C   UNL     1       8.920   2.398   4.790  0.00  0.00    +0.000 C 
ATOM     13  C   UNL     1       7.523   1.861   4.999  0.00  0.00    +0.000 C 
ATOM     14  N   UNL     1       6.658   2.095   3.826  0.00  0.00    +0.000 NA
ATOM     15  C   UNL     1       5.354   1.463   4.073  0.00  0.00    +0.000 C 
ATOM     16  C   UNL     1       7.264   1.798   2.508  0.00  0.00    +0.000 C 
ATOM     17  C   UNL     1       8.711   2.269   2.323  0.00  0.00    +0.000 C 
ENDBRANCH   7  11
BRANCH   1  18
ATOM     18  C   UNL     1       5.340  -1.906   2.617  0.00  0.00    +0.000 C 
BRANCH  18  19
ATOM     19  C   UNL     1       4.807  -1.049   1.441  0.00  0.00    +0.000 C 
BRANCH  19  20
ATOM     20  S   UNL     1       2.997  -1.035   1.522  0.00  0.00    +0.000 S 
ATOM     21  O   UNL     1       2.599  -0.250   2.683  0.00  0.00    +0.000 OA
ATOM     22  O   UNL     1       2.520  -2.376   1.328  0.00  0.00    +0.000 OA
BRANCH  20  24
ATOM     23  C   UNL     1       1.001  -0.094   0.069  0.00  0.00    +0.000 C 
ATOM     24  N   UNL     1       2.488  -0.125   0.183  0.00  0.00    +0.000 NA
ATOM     25  H   UNL     1       2.849   0.830   0.212  0.00  0.00    +0.000 HD
ENDBRANCH  20  24
ENDBRANCH  19  20
ENDBRANCH  18  19
ENDBRANCH   1  18
TORSDOF 5
