REMARK  Name = Natamycin
REMARK  12 active torsions:
REMARK  status: ('A' for Active; 'I' for Inactive)
REMARK    1  A    between atoms: C_4  and  O_5
REMARK    2  A    between atoms: C_7  and  O_8
REMARK    3  A    between atoms: C_10  and  O_11
REMARK    4  A    between atoms: C_12  and  C_13
REMARK    5  A    between atoms: C_13  and  O_14
REMARK    6  A    between atoms: C_19  and  O_20
REMARK    7  A    between atoms: O_20  and  C_21
REMARK    8  A    between atoms: C_24  and  C_25
REMARK    9  A    between atoms: C_26  and  O_27
REMARK   10  A    between atoms: C_28  and  N_29
REMARK   11  A    between atoms: C_30  and  O_31
REMARK   12  A    between atoms: C_41  and  C_42
REMARK                            x       y       z     vdW  Elec       q    Type
REMARK                         _______ _______ _______ _____ _____    ______ ____
ROOT
ATOM      1  C   UNL     1       2.210  -2.505  -3.618  0.00  0.00    +0.000 C 
ATOM      2  C   UNL     1       4.222  -1.710  -2.380  0.00  0.00    +0.000 C 
ATOM      3  C   UNL     1       5.334  -0.932  -3.115  0.00  0.00    +0.000 C 
ATOM      4  C   UNL     1       6.200   0.867  -2.824  0.00  0.00    +0.000 C 
ATOM      5  C   UNL     1       6.136   1.421  -4.813  0.00  0.00    +0.000 C 
ATOM      6  C   UNL     1       7.582   1.110  -5.220  0.00  0.00    +0.000 C 
ATOM      7  C   UNL     1       7.446  -0.233  -5.117  0.00  0.00    +0.000 C 
ATOM      8  C   UNL     1       6.423  -0.583  -5.969  0.00  0.00    +0.000 C 
ATOM      9  C   UNL     1       5.053  -0.332  -5.647  0.00  0.00    +0.000 C 
ATOM     10  C   UNL     1       4.061  -0.663  -6.615  0.00  0.00    +0.000 C 
ATOM     11  C   UNL     1       2.634  -0.340  -6.229  0.00  0.00    +0.000 C 
ATOM     12  C   UNL     1       1.693  -0.768  -7.312  0.00  0.00    +0.000 C 
ATOM     13  C   UNL     1       0.365  -0.621  -7.231  0.00  0.00    +0.000 C 
ATOM     14  C   UNL     1      -0.563  -1.028  -8.302  0.00  0.00    +0.000 C 
ATOM     15  C   UNL     1      -1.896  -0.863  -8.240  0.00  0.00    +0.000 C 
ATOM     16  C   UNL     1      -2.813  -1.293  -9.303  0.00  0.00    +0.000 C 
ATOM     17  C   UNL     1      -4.123  -1.018  -9.290  0.00  0.00    +0.000 C 
ATOM     18  C   UNL     1      -5.025  -1.486 -10.361  0.00  0.00    +0.000 C 
ATOM     19  C   UNL     1      -6.272  -1.111 -10.354  0.00  0.00    +0.000 C 
ATOM     20  C   UNL     1      -7.202  -1.796 -11.452  0.00  0.00    +0.000 C 
ATOM     21  C   UNL     1      -8.252  -1.155 -10.729  0.00  0.00    +0.000 C 
ATOM     22  C   UNL     1      -8.985  -0.025 -10.654  0.00  0.00    +0.000 C 
ATOM     23  O   UNL     1      -8.525  -2.284 -11.033  0.00  0.00    +0.000 OA
ATOM     24  C   UNL     1      -6.951  -2.500  -9.396  0.00  0.00    +0.000 C 
ATOM     25  O   UNL     1      -8.811  -2.352 -10.205  0.00  0.00    +0.000 OA
ATOM     26  C   UNL     1      -4.546  -2.632  -8.116  0.00  0.00    +0.000 C 
ATOM     27  C   UNL     1      -2.294  -2.748  -6.845  0.00  0.00    +0.000 C 
ATOM     28  C   UNL     1       0.004  -2.813  -5.357  0.00  0.00    +0.000 C 
ATOM     29  O   UNL     1       2.163  -3.224  -4.709  0.00  0.00    +0.000 OA
ATOM     30  O   UNL     1       5.006   0.905  -5.924  0.00  0.00    +0.000 OA
ENDROOT
BRANCH   3  31
ATOM     31  O   UNL     1       6.379  -1.398  -3.523  0.00  0.00    +0.000 OA
ATOM     32  H   UNL     1       7.153  -0.980  -2.965  0.00  0.00    +0.000 HD
ENDBRANCH   3  31
BRANCH   5  33
ATOM     33  O   UNL     1       6.058   3.462  -4.282  0.00  0.00    +0.000 OA
ATOM     34  H   UNL     1       6.351   3.517  -3.225  0.00  0.00    +0.000 HD
ENDBRANCH   5  33
BRANCH   7  35
ATOM     35  O   UNL     1       8.741  -0.385  -5.242  0.00  0.00    +0.000 OA
ATOM     36  H   UNL     1       8.914   0.120  -6.049  0.00  0.00    +0.000 HD
ENDBRANCH   7  35
BRANCH   8  37
ATOM     37  C   UNL     1       6.645  -2.017  -6.084  0.00  0.00    +0.000 C 
ATOM     38  O   UNL     1       6.484  -2.511  -7.191  0.00  0.00    +0.000 OA
BRANCH  37  39
ATOM     39  O   UNL     1       6.976  -2.801  -4.998  0.00  0.00    +0.000 OA
ATOM     40  H   UNL     1       7.091  -2.391  -4.104  0.00  0.00    +0.000 HD
ENDBRANCH  37  39
ENDBRANCH   8  37
BRANCH  11  41
ATOM     41  O   UNL     1       2.486   1.065  -5.985  0.00  0.00    +0.000 OA
BRANCH  41  42
ATOM     42  C   UNL     1       3.220   1.560  -4.894  0.00  0.00    +0.000 C 
ATOM     43  O   UNL     1       4.465   1.952  -4.745  0.00  0.00    +0.000 OA
ATOM     44  C   UNL     1       5.071   2.213  -3.622  0.00  0.00    +0.000 C 
ATOM     45  C   UNL     1       7.127   2.306  -3.784  0.00  0.00    +0.000 C 
ATOM     46  C   UNL     1       4.621   1.205  -3.047  0.00  0.00    +0.000 C 
ATOM     47  C   UNL     1       3.410   1.326  -2.525  0.00  0.00    +0.000 C 
ATOM     48  C   UNL     1       2.843   0.785  -3.694  0.00  0.00    +0.000 C 
BRANCH  47  49
ATOM     49  N   UNL     1       3.322   0.650  -1.251  0.00  0.00    +0.000 NA
ATOM     50  H   UNL     1       3.292  -0.288  -1.460  0.00  0.00    +0.000 HD
ATOM     51  H   UNL     1       2.374   0.672  -1.060  0.00  0.00    +0.000 HD
ENDBRANCH  47  49
BRANCH  46  52
ATOM     52  O   UNL     1       5.923   2.001  -1.529  0.00  0.00    +0.000 OA
ATOM     53  H   UNL     1       5.739   2.843  -1.631  0.00  0.00    +0.000 HD
ENDBRANCH  46  52
BRANCH  48  54
ATOM     54  O   UNL     1       2.997  -0.572  -3.757  0.00  0.00    +0.000 OA
ATOM     55  H   UNL     1       3.729  -0.988  -4.172  0.00  0.00    +0.000 HD
ENDBRANCH  48  54
ENDBRANCH  41  42
ENDBRANCH  11  41
TORSDOF 10
