REMARK  Name = Nateglinide
REMARK  9 active torsions:
REMARK  status: ('A' for Active; 'I' for Inactive)
REMARK    1  A    between atoms: C_1  and  C_2
REMARK    2  A    between atoms: C_2  and  C_3
REMARK    3  A    between atoms: C_2  and  C_4
REMARK    4  A    between atoms: C_7  and  C_10
REMARK    5  A    between atoms: N_12  and  CA_13
REMARK    6  A    between atoms: CA_13  and  CB_14
REMARK    7  A    between atoms: CA_13  and  C_21
REMARK    8  A    between atoms: CB_14  and  CG_15
REMARK    9  A    between atoms: C_21  and  O_22
REMARK                            x       y       z     vdW  Elec       q    Type
REMARK                         _______ _______ _______ _____ _____    ______ ____
ROOT
ATOM      1  C   UNK A   0       3.496  -5.438   2.320  0.00  0.00    +0.000 C 
ATOM      2  O   UNK A   0       2.951  -6.266   3.032  0.00  0.00    +0.000 OA
ATOM      3  N   PHE A   1       2.753  -4.468   1.582  0.00  0.00    +0.000 N 
ATOM      4  H   PHE A   1       1.763  -4.565   1.580  0.00  0.00    +0.000 HD
ENDROOT
BRANCH   1   8
ATOM      5  C   UNK A   0       6.507  -2.823   0.366  0.00  0.00    +0.000 C 
ATOM      6  C   UNK A   0       5.257  -3.947  -0.899  0.00  0.00    +0.000 C 
ATOM      7  C   UNK A   0       4.586  -5.539   0.360  0.00  0.00    +0.000 C 
ATOM      8  C   UNK A   0       4.981  -5.571   2.099  0.00  0.00    +0.000 C 
ATOM      9  C   UNK A   0       6.047  -4.553   2.904  0.00  0.00    +0.000 C 
ATOM     10  C   UNK A   0       6.204  -2.996   2.326  0.00  0.00    +0.000 C 
BRANCH   5  12
ATOM     11  C   UNK A   0       8.674  -4.108  -0.669  0.00  0.00    +0.000 C 
ATOM     12  C   UNK A   0       8.041  -2.861   0.028  0.00  0.00    +0.000 C 
ATOM     13  C   UNK A   0       8.750  -2.634   1.383  0.00  0.00    +0.000 C 
ENDBRANCH   5  12
ENDBRANCH   1   8
BRANCH   3  14
ATOM     14  CA  PHE A   1       3.252  -3.535   0.553  0.00  0.00    +0.000 C 
BRANCH  14  15
ATOM     15  C   PHE A   1       2.786  -2.022   0.387  0.00  0.00    +0.000 C 
ATOM     16  OXT PHE A   1       1.655  -1.794  -0.029  0.00  0.00    +0.000 OA
BRANCH  15  17
ATOM     17  O   PHE A   1       3.629  -0.971   0.578  0.00  0.00    +0.000 OA
ATOM     18  H   PHE A   1       4.566  -1.022   0.856  0.00  0.00    +0.000 HD
ENDBRANCH  15  17
ENDBRANCH  14  15
BRANCH  14  19
ATOM     19  CB  PHE A   1       4.826  -3.644   0.760  0.00  0.00    +0.000 C 
BRANCH  19  20
ATOM     20  CG  PHE A   1       6.324  -4.945   0.133  0.00  0.00    +0.000 A 
ATOM     21  CD1 PHE A   1       5.875  -5.970  -1.266  0.00  0.00    +0.000 A 
ATOM     22  CE1 PHE A   1       6.145  -7.300  -1.276  0.00  0.00    +0.000 A 
ATOM     23  CZ  PHE A   1       7.304  -7.548  -0.611  0.00  0.00    +0.000 A 
ATOM     24  CE2 PHE A   1       7.908  -6.643   0.301  0.00  0.00    +0.000 A 
ATOM     25  CD2 PHE A   1       7.341  -5.494   0.854  0.00  0.00    +0.000 A 
ENDBRANCH  19  20
ENDBRANCH  14  19
ENDBRANCH   3  14
TORSDOF 7
