REMARK  Name = Nebivolol
REMARK  8 active torsions:
REMARK  status: ('A' for Active; 'I' for Inactive)
REMARK    1  A    between atoms: O_1  and  C_2
REMARK    2  A    between atoms: C_2  and  C_3
REMARK    3  A    between atoms: C_2  and  C_19
REMARK    4  A    between atoms: C_3  and  N_4
REMARK    5  A    between atoms: N_4  and  C_5
REMARK    6  A    between atoms: C_5  and  C_6
REMARK    7  A    between atoms: C_6  and  O_7
REMARK    8  A    between atoms: C_6  and  C_8
REMARK                            x       y       z     vdW  Elec       q    Type
REMARK                         _______ _______ _______ _____ _____    ______ ____
ROOT
ATOM      1  N   UNL     1       2.421  -1.616   1.885  0.00  0.00    +0.000 NA
ATOM      2  H   UNL     1       1.402  -1.683   1.898  0.00  0.00    +0.000 HD
ENDROOT
BRANCH   1   3
ATOM      3  C   UNL     1       2.901  -1.332   0.530  0.00  0.00    +0.000 C 
BRANCH   3   4
ATOM      4  C   UNL     1       2.388   0.036   0.086  0.00  0.00    +0.000 C 
BRANCH   4   5
ATOM      5  C   UNL     1       2.889   0.367  -1.327  0.00  0.00    +0.000 C 
ATOM      6  C   UNL     1       2.186   1.617  -1.840  0.00  0.00    +0.000 C 
ATOM      7  C   UNL     1       2.731   1.973  -3.209  0.00  0.00    +0.000 C 
ATOM      8  C   UNL     1       2.849   0.750  -4.069  0.00  0.00    +0.000 A 
ATOM      9  C   UNL     1       2.798  -0.533  -3.514  0.00  0.00    +0.000 A 
ATOM     10  O   UNL     1       2.638  -0.764  -2.179  0.00  0.00    +0.000 OA
ATOM     11  C   UNL     1       2.870  -1.669  -4.323  0.00  0.00    +0.000 A 
ATOM     12  C   UNL     1       3.032  -1.528  -5.701  0.00  0.00    +0.000 A 
ATOM     13  C   UNL     1       3.114  -0.254  -6.247  0.00  0.00    +0.000 A 
ATOM     14  F   UNL     1       3.276  -0.114  -7.571  0.00  0.00    +0.000 F 
ATOM     15  C   UNL     1       3.024   0.882  -5.451  0.00  0.00    +0.000 A 
ENDBRANCH   4   5
BRANCH   4  16
ATOM     16  O   UNL     1       0.952   0.033   0.125  0.00  0.00    +0.000 OA
ATOM     17  H   UNL     1       0.710  -0.097   1.057  0.00  0.00    +0.000 HD
ENDBRANCH   4  16
ENDBRANCH   3   4
ENDBRANCH   1   3
BRANCH   1  18
ATOM     18  C   UNL     1       2.918  -2.929   2.278  0.00  0.00    +0.000 C 
BRANCH  18  19
ATOM     19  C   UNL     1       2.432  -3.285   3.687  0.00  0.00    +0.000 C 
BRANCH  19  20
ATOM     20  C   UNL     1       2.933  -4.680   4.115  0.00  0.00    +0.000 C 
ATOM     21  C   UNL     1       4.377  -4.931   3.673  0.00  0.00    +0.000 C 
ATOM     22  C   UNL     1       4.850  -6.271   4.189  0.00  0.00    +0.000 C 
ATOM     23  C   UNL     1       3.785  -7.307   3.989  0.00  0.00    +0.000 A 
ATOM     24  C   UNL     1       2.464  -6.951   3.685  0.00  0.00    +0.000 A 
ATOM     25  O   UNL     1       2.056  -5.655   3.518  0.00  0.00    +0.000 OA
ATOM     26  C   UNL     1       1.489  -7.928   3.484  0.00  0.00    +0.000 A 
ATOM     27  C   UNL     1       1.824  -9.276   3.612  0.00  0.00    +0.000 A 
ATOM     28  C   UNL     1       3.129  -9.627   3.929  0.00  0.00    +0.000 A 
ATOM     29  F   UNL     1       3.453 -10.922   4.052  0.00  0.00    +0.000 F 
ATOM     30  C   UNL     1       4.110  -8.662   4.117  0.00  0.00    +0.000 A 
ENDBRANCH  19  20
BRANCH  19  31
ATOM     31  O   UNL     1       0.993  -3.238   3.716  0.00  0.00    +0.000 OA
ATOM     32  H   UNL     1       0.692  -4.000   3.185  0.00  0.00    +0.000 HD
ENDBRANCH  19  31
ENDBRANCH  18  19
ENDBRANCH   1  18
TORSDOF 8
