REMARK  Name = Nefazodone
REMARK  11 active torsions:
REMARK  status: ('A' for Active; 'I' for Inactive)
REMARK    1  A    between atoms: C_1  and  C_2
REMARK    2  A    between atoms: C_2  and  C_3
REMARK    3  A    between atoms: N_5  and  C_6
REMARK    4  A    between atoms: C_6  and  C_7
REMARK    5  A    between atoms: C_7  and  C_8
REMARK    6  A    between atoms: C_8  and  N_9
REMARK    7  A    between atoms: N_12  and  C_15
REMARK    8  A    between atoms: N_24  and  C_25
REMARK    9  A    between atoms: C_25  and  C_26
REMARK   10  A    between atoms: C_26  and  O_27
REMARK   11  A    between atoms: O_27  and  C_28
REMARK                            x       y       z     vdW  Elec       q    Type
REMARK                         _______ _______ _______ _____ _____    ______ ____
ROOT
ATOM      1  C   UNL     1       3.020   1.098  -1.207  0.00  0.00    +0.000 A 
ATOM      2  N   UNL     1       2.838   2.393  -1.373  0.00  0.00    +0.000 NA
ATOM      3  N   UNL     1       3.347   2.672  -2.652  0.00  0.00    +0.000 N 
ATOM      4  C   UNL     1       3.837   1.478  -3.204  0.00  0.00    +0.000 A 
ATOM      5  O   UNL     1       4.328   1.275  -4.294  0.00  0.00    +0.000 OA
ATOM      6  N   UNL     1       3.632   0.501  -2.254  0.00  0.00    +0.000 N 
ENDROOT
BRANCH   1   8
ATOM      7  C   UNL     1       1.036   0.094   0.043  0.00  0.00    +0.000 C 
ATOM      8  C   UNL     1       2.536   0.324   0.035  0.00  0.00    +0.000 C 
ENDBRANCH   1   8
BRANCH   3   9
ATOM      9  C   UNL     1       3.318   4.012  -3.323  0.00  0.00    +0.000 C 
BRANCH   9  10
ATOM     10  C   UNL     1       3.851   3.915  -4.750  0.00  0.00    +0.000 C 
BRANCH  10  11
ATOM     11  C   UNL     1       4.120   5.122  -5.650  0.00  0.00    +0.000 C 
BRANCH  11  12
ATOM     12  N   UNL     1       4.796   4.813  -6.950  0.00  0.00    +0.000 NA
ATOM     13  C   UNL     1       6.029   5.634  -7.144  0.00  0.00    +0.000 C 
ATOM     14  C   UNL     1       7.184   5.240  -6.180  0.00  0.00    +0.000 C 
ATOM     15  N   UNL     1       7.491   3.830  -6.409  0.00  0.00    +0.000 N 
ATOM     16  C   UNL     1       6.383   2.894  -6.270  0.00  0.00    +0.000 C 
ATOM     17  C   UNL     1       5.194   3.384  -7.141  0.00  0.00    +0.000 C 
BRANCH  15  18
ATOM     18  C   UNL     1       8.750   3.313  -6.528  0.00  0.00    +0.000 A 
ATOM     19  C   UNL     1       9.019   2.477  -7.619  0.00  0.00    +0.000 A 
ATOM     20  C   UNL     1      10.288   1.957  -7.820  0.00  0.00    +0.000 A 
ATOM     21 CL   UNL     1      10.588   0.976  -9.198  0.00  0.00    +0.000 Cl
ATOM     22  C   UNL     1      11.307   2.244  -6.920  0.00  0.00    +0.000 A 
ATOM     23  C   UNL     1      11.043   3.038  -5.803  0.00  0.00    +0.000 A 
ATOM     24  C   UNL     1       9.767   3.572  -5.610  0.00  0.00    +0.000 A 
ENDBRANCH  15  18
ENDBRANCH  11  12
ENDBRANCH  10  11
ENDBRANCH   9  10
ENDBRANCH   3   9
BRANCH   6  25
ATOM     25  C   UNL     1       4.048  -0.855  -2.603  0.00  0.00    +0.000 C 
BRANCH  25  26
ATOM     26  C   UNL     1       3.816  -1.895  -1.540  0.00  0.00    +0.000 C 
BRANCH  26  27
ATOM     27  O   UNL     1       4.297  -3.173  -1.895  0.00  0.00    +0.000 OA
BRANCH  27  28
ATOM     28  C   UNL     1       3.989  -4.138  -0.967  0.00  0.00    +0.000 A 
ATOM     29  C   UNL     1       4.934  -5.153  -0.870  0.00  0.00    +0.000 A 
ATOM     30  C   UNL     1       4.646  -6.312  -0.156  0.00  0.00    +0.000 A 
ATOM     31  C   UNL     1       3.447  -6.422   0.545  0.00  0.00    +0.000 A 
ATOM     32  C   UNL     1       2.525  -5.378   0.514  0.00  0.00    +0.000 A 
ATOM     33  C   UNL     1       2.792  -4.234  -0.244  0.00  0.00    +0.000 A 
ENDBRANCH  27  28
ENDBRANCH  26  27
ENDBRANCH  25  26
ENDBRANCH   6  25
TORSDOF 10
