REMARK  Name = Nefopam
REMARK  2 active torsions:
REMARK  status: ('A' for Active; 'I' for Inactive)
REMARK    1  A    between atoms: C_1  and  N_2
REMARK    2  A    between atoms: C_6  and  C_7
REMARK                            x       y       z     vdW  Elec       q    Type
REMARK                         _______ _______ _______ _____ _____    ______ ____
ROOT
ATOM      1  C   UNL     1       0.724  -0.072   0.327  0.00  0.00    +0.000 C 
ATOM      2  N   UNL     1       2.125   0.204   0.390  0.00  0.00    +0.000 NA
ATOM      3  C   UNL     1       2.905   0.180   1.628  0.00  0.00    +0.000 C 
ATOM      4  C   UNL     1       3.925   1.361   1.895  0.00  0.00    +0.000 C 
ATOM      5  O   UNL     1       4.988   1.505   0.895  0.00  0.00    +0.000 OA
ATOM      6  C   UNL     1       4.948   2.641  -0.057  0.00  0.00    +0.000 C 
ATOM      7  C   UNL     1       3.636   3.418   0.079  0.00  0.00    +0.000 A 
ATOM      8  C   UNL     1       3.595   4.723   0.593  0.00  0.00    +0.000 A 
ATOM      9  C   UNL     1       2.359   5.318   0.863  0.00  0.00    +0.000 A 
ATOM     10  C   UNL     1       1.168   4.638   0.600  0.00  0.00    +0.000 A 
ATOM     11  C   UNL     1       1.197   3.349   0.094  0.00  0.00    +0.000 A 
ATOM     12  C   UNL     1       2.416   2.719  -0.110  0.00  0.00    +0.000 A 
ATOM     13  C   UNL     1       2.446   1.274  -0.494  0.00  0.00    +0.000 C 
ENDROOT
BRANCH   6  14
ATOM     14  C   UNL     1       5.298   2.244  -1.558  0.00  0.00    +0.000 A 
ATOM     15  C   UNL     1       4.553   1.371  -2.385  0.00  0.00    +0.000 A 
ATOM     16  C   UNL     1       4.861   0.872  -3.628  0.00  0.00    +0.000 A 
ATOM     17  C   UNL     1       5.951   1.409  -4.251  0.00  0.00    +0.000 A 
ATOM     18  C   UNL     1       6.657   2.410  -3.581  0.00  0.00    +0.000 A 
ATOM     19  C   UNL     1       6.383   2.798  -2.242  0.00  0.00    +0.000 A 
ENDBRANCH   6  14
TORSDOF 1
