REMARK  Name = Nelarabine
REMARK  7 active torsions:
REMARK  status: ('A' for Active; 'I' for Inactive)
REMARK    1  A    between atoms: C_1  and  O_2
REMARK    2  A    between atoms: O_2  and  C_3
REMARK    3  A    between atoms: N_12  and  C1*_13
REMARK    4  A    between atoms: C4*_15  and  C5*_16
REMARK    5  A    between atoms: C5*_16  and  O5*_17
REMARK    6  A    between atoms: C3*_18  and  O3*_19
REMARK    7  A    between atoms: C2*_20  and  O2*_21
REMARK                            x       y       z     vdW  Elec       q    Type
REMARK                         _______ _______ _______ _____ _____    ______ ____
ROOT
ATOM      1  C   UNL     1       3.173   0.087   1.233  0.00  0.00    +0.000 A 
ATOM      2  N   UNL     1       2.763  -0.649   2.304  0.00  0.00    +0.000 NA
ATOM      3  C   UNL     1       3.471  -0.572   3.442  0.00  0.00    +0.000 A 
ATOM      4  N   UNL     1       3.048  -1.255   4.543  0.00  0.00    +0.000 N 
ATOM      5  N   UNL     1       4.571   0.165   3.620  0.00  0.00    +0.000 NA
ATOM      6  C   UNL     1       4.936   0.885   2.566  0.00  0.00    +0.000 A 
ATOM      7  C   UNL     1       4.300   0.912   1.339  0.00  0.00    +0.000 A 
ATOM      8  N   UNL     1       4.942   1.791   0.496  0.00  0.00    +0.000 NA
ATOM      9  C   UNL     1       5.926   2.304   1.209  0.00  0.00    +0.000 A 
ATOM     10  N   UNL     1       5.966   1.787   2.480  0.00  0.00    +0.000 N 
ATOM     11  H   UNL     1       2.306  -1.927   4.450  0.00  0.00    +0.000 HD
ATOM     12  H   UNL     1       3.634  -1.222   5.366  0.00  0.00    +0.000 HD
ENDROOT
BRANCH  10  13
ATOM     13  C1* UNL     1       6.838   2.260   3.549  0.00  0.00    +0.000 C 
ATOM     14  O4* UNL     1       7.676   1.178   4.008  0.00  0.00    +0.000 OA
ATOM     15  C4* UNL     1       7.329   0.880   5.382  0.00  0.00    +0.000 C 
ATOM     16  C3* UNL     1       6.025   1.617   5.708  0.00  0.00    +0.000 C 
ATOM     17  C2* UNL     1       6.134   2.831   4.790  0.00  0.00    +0.000 C 
BRANCH  16  18
ATOM     18  O3* UNL     1       5.833   1.922   7.083  0.00  0.00    +0.000 OA
ATOM     19  H3* UNL     1       6.528   2.513   7.404  0.00  0.00    +0.000 HD
ENDBRANCH  16  18
BRANCH  17  20
ATOM     20  O2* UNL     1       4.912   3.501   4.514  0.00  0.00    +0.000 OA
ATOM     21  H2* UNL     1       4.272   2.847   4.173  0.00  0.00    +0.000 HD
ENDBRANCH  17  20
BRANCH  15  22
ATOM     22  C5* UNL     1       7.252  -0.637   5.566  0.00  0.00    +0.000 C 
BRANCH  22  23
ATOM     23  O5* UNL     1       6.947  -1.008   6.902  0.00  0.00    +0.000 OA
ATOM     24  H5* UNL     1       7.617  -0.615   7.486  0.00  0.00    +0.000 HD
ENDBRANCH  22  23
ENDBRANCH  15  22
ENDBRANCH  10  13
BRANCH   1  26
ATOM     25  C   UNL     1       1.129  -0.096   0.111  0.00  0.00    +0.000 C 
ATOM     26  O   UNL     1       2.546  -0.069   0.014  0.00  0.00    +0.000 OA
ENDBRANCH   1  26
TORSDOF 6
