REMARK  Name = Nelfinavir
REMARK  16 active torsions:
REMARK  status: ('A' for Active; 'I' for Inactive)
REMARK    1  A    between atoms: N_10  and  C_11
REMARK    2  A    between atoms: C_11  and  C_12
REMARK    3  A    between atoms: C_12  and  O_13
REMARK    4  A    between atoms: C_12  and  C_14
REMARK    5  A    between atoms: C_14  and  C_15
REMARK    6  A    between atoms: C_14  and  N_23
REMARK    7  A    between atoms: C_15  and  S_16
REMARK    8  A    between atoms: S_16  and  C_17
REMARK    9  A    between atoms: C_24  and  C_26
REMARK   10  A    between atoms: C_27  and  C_28
REMARK   11  A    between atoms: C_29  and  O_30
REMARK   12  A    between atoms: C_34  and  C_36
REMARK   13  A    between atoms: N_38  and  C_39
REMARK   14  A    between atoms: C_39  and  C_40
REMARK   15  A    between atoms: C_39  and  C_41
REMARK   16  A    between atoms: C_39  and  C_42
REMARK                            x       y       z     vdW  Elec       q    Type
REMARK                         _______ _______ _______ _____ _____    ______ ____
ROOT
ATOM      1  C   UNL     1       2.666  -6.284  -3.621  0.00  0.00    +0.000 C 
ENDROOT
BRANCH   1   2
ATOM      2  O   UNL     1       4.109  -6.315  -3.687  0.00  0.00    +0.000 OA
ATOM      3  H   UNL     1       4.397  -6.360  -2.754  0.00  0.00    +0.000 HD
ENDBRANCH   1   2
BRANCH   1   4
ATOM      4  C   UNL     1       2.302  -7.490  -4.500  0.00  0.00    +0.000 C 
BRANCH   4  12
ATOM      5  C   UNL     1       4.559 -11.268  -3.720  0.00  0.00    +0.000 C 
ATOM      6  C   UNL     1       4.830 -12.676  -3.020  0.00  0.00    +0.000 C 
ATOM      7  C   UNL     1       4.134 -12.954  -1.677  0.00  0.00    +0.000 C 
ATOM      8  C   UNL     1       4.231 -11.795  -0.643  0.00  0.00    +0.000 C 
ATOM      9  C   UNL     1       4.176 -10.346  -1.180  0.00  0.00    +0.000 C 
ATOM     10  C   UNL     1       4.674 -10.134  -2.654  0.00  0.00    +0.000 C 
ATOM     11  C   UNL     1       4.077  -8.877  -3.337  0.00  0.00    +0.000 C 
ATOM     12  N   UNL     1       2.718  -8.816  -4.007  0.00  0.00    +0.000 NA
ATOM     13  C   UNL     1       2.075 -10.001  -4.783  0.00  0.00    +0.000 C 
ATOM     14  C   UNL     1       3.227 -11.207  -4.821  0.00  0.00    +0.000 C 
BRANCH  13  15
ATOM     15  C   UNL     1       0.328 -10.360  -4.211  0.00  0.00    +0.000 C 
ATOM     16  O   UNL     1      -0.488  -9.453  -3.933  0.00  0.00    +0.000 OA
ATOM     17  N   UNL     1      -0.186 -11.662  -3.906  0.00  0.00    +0.000 N 
ATOM     18  H   UNL     1       0.293 -12.442  -4.339  0.00  0.00    +0.000 HD
BRANCH  17  19
ATOM     19  C   UNL     1      -1.334 -12.080  -2.898  0.00  0.00    +0.000 C 
ATOM     20  C   UNL     1      -1.298 -11.994  -1.337  0.00  0.00    +0.000 C 
ATOM     21  C   UNL     1      -2.546 -11.218  -3.142  0.00  0.00    +0.000 C 
ATOM     22  C   UNL     1      -1.521 -13.591  -3.101  0.00  0.00    +0.000 C 
ENDBRANCH  17  19
ENDBRANCH  13  15
ENDBRANCH   4  12
ENDBRANCH   1   4
BRANCH   1  23
ATOM     23  C   UNL     1       2.002  -6.122  -2.138  0.00  0.00    +0.000 C 
BRANCH  23  24
ATOM     24  N   UNL     1       1.989  -7.369  -1.282  0.00  0.00    +0.000 N 
ATOM     25  C   UNL     1       1.061  -8.356  -1.583  0.00  0.00    +0.000 C 
ATOM     26  O   UNL     1       0.217  -7.984  -2.411  0.00  0.00    +0.000 OA
ATOM     27  H   UNL     1       2.515  -7.432  -0.421  0.00  0.00    +0.000 HD
BRANCH  25  28
ATOM     28  C   UNL     1       1.027  -9.747  -0.833  0.00  0.00    +0.000 A 
ATOM     29  C   UNL     1       1.270 -11.073  -1.364  0.00  0.00    +0.000 A 
ATOM     30  C   UNL     1       1.939 -11.192  -2.595  0.00  0.00    +0.000 C 
ATOM     31  C   UNL     1       1.258 -12.328  -0.734  0.00  0.00    +0.000 A 
ATOM     32  C   UNL     1       1.078 -12.307   0.598  0.00  0.00    +0.000 A 
ATOM     33  C   UNL     1       0.848 -11.051   1.194  0.00  0.00    +0.000 A 
ATOM     34  C   UNL     1       0.837  -9.792   0.513  0.00  0.00    +0.000 A 
BRANCH  31  35
ATOM     35  O   UNL     1       1.291 -13.550  -1.378  0.00  0.00    +0.000 OA
ATOM     36  H   UNL     1       1.339 -13.484  -2.353  0.00  0.00    +0.000 HD
ENDBRANCH  31  35
ENDBRANCH  25  28
ENDBRANCH  23  24
BRANCH  23  37
ATOM     37  C   UNL     1       2.532  -4.924  -1.296  0.00  0.00    +0.000 C 
BRANCH  37  38
ATOM     38  S   UNL     1       4.246  -4.663  -1.796  0.00  0.00    +0.000 S 
BRANCH  38  39
ATOM     39  C   UNL     1       4.959  -3.393  -0.907  0.00  0.00    +0.000 A 
ATOM     40  C   UNL     1       4.578  -3.105   0.384  0.00  0.00    +0.000 A 
ATOM     41  C   UNL     1       5.183  -2.040   1.013  0.00  0.00    +0.000 A 
ATOM     42  C   UNL     1       6.229  -1.357   0.382  0.00  0.00    +0.000 A 
ATOM     43  C   UNL     1       6.653  -1.704  -0.900  0.00  0.00    +0.000 A 
ATOM     44  C   UNL     1       6.007  -2.729  -1.553  0.00  0.00    +0.000 A 
ENDBRANCH  38  39
ENDBRANCH  37  38
ENDBRANCH  23  37
ENDBRANCH   1  23
TORSDOF 12
