REMARK  Name = Neostigmine
REMARK  8 active torsions:
REMARK  status: ('A' for Active; 'I' for Inactive)
REMARK    1  A    between atoms: C_1  and  N_2
REMARK    2  A    between atoms: N_2  and  C_3
REMARK    3  A    between atoms: C_4  and  O_6
REMARK    4  A    between atoms: O_6  and  C_7
REMARK    5  A    between atoms: C_9  and  N_13
REMARK    6  A    between atoms: N_13  and  C_14
REMARK    7  A    between atoms: N_13  and  C_15
REMARK    8  A    between atoms: N_13  and  C_16
REMARK                            x       y       z     vdW  Elec       q    Type
REMARK                         _______ _______ _______ _____ _____    ______ ____
ROOT
ATOM      1  C   UNL     1       5.167  -2.471   0.109  0.00  0.00    +0.000 A 
ATOM      2  C   UNL     1       6.352  -2.568   0.863  0.00  0.00    +0.000 A 
ATOM      3  C   UNL     1       7.326  -3.619   0.754  0.00  0.00    +0.000 A 
ATOM      4  C   UNL     1       6.781  -4.710   0.035  0.00  0.00    +0.000 A 
ATOM      5  C   UNL     1       5.584  -4.642  -0.714  0.00  0.00    +0.000 A 
ATOM      6  C   UNL     1       4.806  -3.499  -0.723  0.00  0.00    +0.000 A 
ENDROOT
BRANCH   3   7
ATOM      7  N   UNL     1       8.604  -3.776   1.775  0.00  0.00    +0.000 NA
ATOM      8  C   UNL     1      10.313  -3.389   1.963  0.00  0.00    +0.000 C 
ATOM      9  C   UNL     1       8.596  -2.348   2.343  0.00  0.00    +0.000 C 
ATOM     10  C   UNL     1       9.287  -5.142   1.280  0.00  0.00    +0.000 C 
ENDBRANCH   3   7
BRANCH   1  11
ATOM     11  O   UNL     1       4.438  -1.254   0.209  0.00  0.00    +0.000 OA
BRANCH  11  15
ATOM     12  C   UNL     1       0.977  -0.004   0.060  0.00  0.00    +0.000 C 
ATOM     13  N   UNL     1       2.431  -0.036   0.083  0.00  0.00    +0.000 N 
ATOM     14  C   UNL     1       3.152   1.220  -0.010  0.00  0.00    +0.000 C 
ATOM     15  C   UNL     1       3.031  -1.293   0.183  0.00  0.00    +0.000 C 
ATOM     16  O   UNL     1       2.391  -2.324   0.250  0.00  0.00    +0.000 OA
ENDBRANCH  11  15
ENDBRANCH   1  11
TORSDOF 3
