REMARK  Name = Nepafenac
REMARK  5 active torsions:
REMARK  status: ('A' for Active; 'I' for Inactive)
REMARK    1  A    between atoms: C_2  and  C_4
REMARK    2  A    between atoms: C_4  and  C_5
REMARK    3  A    between atoms: C_9  and  C_10
REMARK    4  A    between atoms: C_10  and  C_12
REMARK    5  A    between atoms: C_18  and  N_19
REMARK                            x       y       z     vdW  Elec       q    Type
REMARK                         _______ _______ _______ _____ _____    ______ ____
ROOT
ATOM      1  C   UNL     1       4.636  -0.684  -0.727  0.00  0.00    +0.000 A 
ATOM      2  C   UNL     1       5.243   0.587  -0.690  0.00  0.00    +0.000 A 
ATOM      3  C   UNL     1       6.606   0.725  -0.464  0.00  0.00    +0.000 A 
ATOM      4  C   UNL     1       7.397  -0.413  -0.337  0.00  0.00    +0.000 A 
ATOM      5  C   UNL     1       6.832  -1.705  -0.420  0.00  0.00    +0.000 A 
ATOM      6  C   UNL     1       5.425  -1.847  -0.575  0.00  0.00    +0.000 A 
ENDROOT
BRANCH   6   7
ATOM      7  N   UNL     1       4.788  -3.081  -0.608  0.00  0.00    +0.000 N 
ATOM      8  H   UNL     1       5.203  -3.892  -0.177  0.00  0.00    +0.000 HD
ATOM      9  H   UNL     1       3.829  -3.213  -0.874  0.00  0.00    +0.000 HD
ENDBRANCH   6   7
BRANCH   5  10
ATOM     10  C   UNL     1       7.807  -2.852  -0.321  0.00  0.00    +0.000 C 
ATOM     11  O   UNL     1       8.995  -2.651  -0.069  0.00  0.00    +0.000 OA
BRANCH  10  12
ATOM     12  C   UNL     1       7.404  -4.263  -0.517  0.00  0.00    +0.000 A 
ATOM     13  C   UNL     1       7.536  -5.166   0.544  0.00  0.00    +0.000 A 
ATOM     14  C   UNL     1       7.095  -6.482   0.387  0.00  0.00    +0.000 A 
ATOM     15  C   UNL     1       6.426  -6.865  -0.778  0.00  0.00    +0.000 A 
ATOM     16  C   UNL     1       6.257  -5.953  -1.819  0.00  0.00    +0.000 A 
ATOM     17  C   UNL     1       6.796  -4.670  -1.714  0.00  0.00    +0.000 A 
ENDBRANCH  10  12
ENDBRANCH   5  10
BRANCH   1  18
ATOM     18  C   UNL     1       3.129  -0.754  -0.893  0.00  0.00    +0.000 C 
BRANCH  18  20
ATOM     19  N   UNL     1       1.002  -0.032   0.039  0.00  0.00    +0.000 N 
ATOM     20  C   UNL     1       2.358   0.043   0.141  0.00  0.00    +0.000 C 
ATOM     21  O   UNL     1       2.854   0.724   1.038  0.00  0.00    +0.000 OA
ATOM     22  H   UNL     1       0.476   0.486   0.730  0.00  0.00    +0.000 HD
ATOM     23  H   UNL     1       0.510  -0.610  -0.627  0.00  0.00    +0.000 HD
ENDBRANCH  18  20
ENDBRANCH   1  18
TORSDOF 5
