REMARK  Name = Neratinib
REMARK  15 active torsions:
REMARK  status: ('A' for Active; 'I' for Inactive)
REMARK    1  A    between atoms: C_1  and  C_2
REMARK    2  A    between atoms: C_2  and  O_3
REMARK    3  A    between atoms: O_3  and  C_4
REMARK    4  A    between atoms: C_5  and  N_6
REMARK    5  A    between atoms: C_7  and  C_9
REMARK    6  A    between atoms: C_10  and  C_11
REMARK    7  A    between atoms: C_11  and  N_12
REMARK    8  A    between atoms: N_12  and  C_13
REMARK    9  A    between atoms: N_12  and  C_14
REMARK   10  A    between atoms: C_17  and  N_18
REMARK   11  A    between atoms: N_18  and  C_19
REMARK   12  A    between atoms: C_22  and  O_23
REMARK   13  A    between atoms: O_23  and  C_24
REMARK   14  A    between atoms: C_24  and  C_25
REMARK   15  A    between atoms: C_34  and  C_39
REMARK                            x       y       z     vdW  Elec       q    Type
REMARK                         _______ _______ _______ _____ _____    ______ ____
ROOT
ATOM      1  C   UNL     1       4.310  -1.526  -0.100  0.00  0.00    +0.000 A 
ATOM      2  C   UNL     1       5.188  -0.908   0.799  0.00  0.00    +0.000 A 
ATOM      3  C   UNL     1       6.554  -1.203   0.670  0.00  0.00    +0.000 A 
ATOM      4  C   UNL     1       7.105  -2.108  -0.254  0.00  0.00    +0.000 A 
ATOM      5  C   UNL     1       8.511  -2.410  -0.329  0.00  0.00    +0.000 A 
ATOM      6  C   UNL     1       8.892  -3.388  -1.260  0.00  0.00    +0.000 A 
ATOM      7  C   UNL     1       7.921  -3.951  -2.067  0.00  0.00    +0.000 A 
ATOM      8  N   UNL     1       6.605  -3.656  -2.019  0.00  0.00    +0.000 NA
ATOM      9  C   UNL     1       6.195  -2.757  -1.115  0.00  0.00    +0.000 A 
ATOM     10  C   UNL     1       4.831  -2.458  -1.025  0.00  0.00    +0.000 A 
ENDROOT
BRANCH   2  11
ATOM     11  N   UNL     1       4.748  -0.052   1.852  0.00  0.00    +0.000 N 
ATOM     12  C   UNL     1       5.562   0.643   2.725  0.00  0.00    +0.000 C 
ATOM     13  O   UNL     1       6.786   0.587   2.775  0.00  0.00    +0.000 OA
ATOM     14  H   UNL     1       3.756  -0.001   2.014  0.00  0.00    +0.000 HD
BRANCH  12  15
ATOM     15  C   UNL     1       4.846   1.547   3.666  0.00  0.00    +0.000 C 
ATOM     16  C   UNL     1       5.605   2.190   4.572  0.00  0.00    +0.000 C 
BRANCH  16  17
ATOM     17  C   UNL     1       5.104   3.189   5.568  0.00  0.00    +0.000 C 
BRANCH  17  18
ATOM     18  N   UNL     1       6.181   3.762   6.394  0.00  0.00    +0.000 NA
ATOM     19  C   UNL     1       7.148   4.506   5.578  0.00  0.00    +0.000 C 
ATOM     20  C   UNL     1       5.607   4.672   7.391  0.00  0.00    +0.000 C 
ENDBRANCH  17  18
ENDBRANCH  16  17
ENDBRANCH  12  15
ENDBRANCH   2  11
BRANCH   5  21
ATOM     21  N   UNL     1       9.457  -1.716   0.491  0.00  0.00    +0.000 N 
ATOM     22  H   UNL     1       9.105  -1.129   1.243  0.00  0.00    +0.000 HD
BRANCH  21  23
ATOM     23  C   UNL     1      10.860  -1.844   0.517  0.00  0.00    +0.000 A 
ATOM     24  C   UNL     1      11.626  -1.574  -0.618  0.00  0.00    +0.000 A 
ATOM     25  C   UNL     1      12.978  -1.939  -0.676  0.00  0.00    +0.000 A 
ATOM     26  C   UNL     1      13.621  -2.521   0.431  0.00  0.00    +0.000 A 
ATOM     27  C   UNL     1      12.858  -2.728   1.597  0.00  0.00    +0.000 A 
ATOM     28 CL   UNL     1      13.404  -3.436   3.086  0.00  0.00    +0.000 Cl
ATOM     29  C   UNL     1      11.498  -2.382   1.631  0.00  0.00    +0.000 A 
BRANCH  26  30
ATOM     30  O   UNL     1      14.943  -2.812   0.192  0.00  0.00    +0.000 OA
BRANCH  30  31
ATOM     31  C   UNL     1      15.691  -3.345   1.283  0.00  0.00    +0.000 C 
BRANCH  31  32
ATOM     32  C   UNL     1      17.143  -3.533   0.941  0.00  0.00    +0.000 A 
ATOM     33  C   UNL     1      17.957  -2.416   0.790  0.00  0.00    +0.000 A 
ATOM     34  C   UNL     1      19.294  -2.610   0.476  0.00  0.00    +0.000 A 
ATOM     35  C   UNL     1      19.780  -3.906   0.343  0.00  0.00    +0.000 A 
ATOM     36  C   UNL     1      18.911  -4.963   0.550  0.00  0.00    +0.000 A 
ATOM     37  N   UNL     1      17.608  -4.805   0.849  0.00  0.00    +0.000 NA
ENDBRANCH  31  32
ENDBRANCH  30  31
ENDBRANCH  26  30
ENDBRANCH  21  23
ENDBRANCH   5  21
BRANCH   6  38
ATOM     38  C   UNL     1      10.213  -3.906  -1.461  0.00  0.00    +0.000 C 
ATOM     39  N   UNL     1      11.256  -4.343  -1.695  0.00  0.00    +0.000 NA
ENDBRANCH   6  38
BRANCH   1  40
ATOM     40  O   UNL     1       2.941  -1.385  -0.107  0.00  0.00    +0.000 OA
BRANCH  40  42
ATOM     41  C   UNL     1       0.927  -0.065  -0.118  0.00  0.00    +0.000 C 
ATOM     42  C   UNL     1       2.444  -0.043  -0.152  0.00  0.00    +0.000 C 
ENDBRANCH  40  42
ENDBRANCH   1  40
TORSDOF 12
