REMARK  Name = Netarsudil
REMARK  11 active torsions:
REMARK  status: ('A' for Active; 'I' for Inactive)
REMARK    1  A    between atoms: C_1  and  C_2
REMARK    2  A    between atoms: C_4  and  C_5
REMARK    3  A    between atoms: C_6  and  C_9
REMARK    4  A    between atoms: C_9  and  O_11
REMARK    5  A    between atoms: O_11  and  C_12
REMARK    6  A    between atoms: C_12  and  C_13
REMARK    7  A    between atoms: C_16  and  C_19
REMARK    8  A    between atoms: C_19  and  C_20
REMARK    9  A    between atoms: C_19  and  C_22
REMARK   10  A    between atoms: C_20  and  N_21
REMARK   11  A    between atoms: N_24  and  C_25
REMARK                            x       y       z     vdW  Elec       q    Type
REMARK                         _______ _______ _______ _____ _____    ______ ____
ROOT
ATOM      1  C   UNL     1      -2.533  -9.614   0.145  0.00  0.00    +0.000 C 
ENDROOT
BRANCH   1   5
ATOM      2  C   UNL     1      -3.438  -5.367  -0.095  0.00  0.00    +0.000 A 
ATOM      3  C   UNL     1      -4.320  -6.309  -0.604  0.00  0.00    +0.000 A 
ATOM      4  C   UNL     1      -4.108  -7.663  -0.345  0.00  0.00    +0.000 A 
ATOM      5  C   UNL     1      -2.908  -8.131   0.167  0.00  0.00    +0.000 A 
ATOM      6  C   UNL     1      -2.058  -7.153   0.634  0.00  0.00    +0.000 A 
ATOM      7  C   UNL     1      -2.296  -5.816   0.509  0.00  0.00    +0.000 A 
BRANCH   2   8
ATOM      8  C   UNL     1      -3.706  -3.897  -0.063  0.00  0.00    +0.000 C 
BRANCH   8   9
ATOM      9  O   UNL     1      -2.444  -3.171  -0.043  0.00  0.00    +0.000 OA
BRANCH   9  10
ATOM     10  C   UNL     1      -2.557  -1.824  -0.016  0.00  0.00    +0.000 C 
ATOM     11  O   UNL     1      -3.639  -1.260  -0.014  0.00  0.00    +0.000 OA
BRANCH  10  17
ATOM     12  C   UNL     1       2.526   1.060   0.007  0.00  0.00    +0.000 C 
ATOM     13  C   UNL     1       1.214   0.337  -0.004  0.00  0.00    +0.000 A 
ATOM     14  C   UNL     1      -0.002   1.025  -0.009  0.00  0.00    +0.000 A 
ATOM     15  C   UNL     1      -1.228   0.328   0.002  0.00  0.00    +0.000 A 
ATOM     16  C   UNL     1      -2.532   1.070  -0.001  0.00  0.00    +0.000 C 
ATOM     17  C   UNL     1      -1.242  -1.081  -0.001  0.00  0.00    +0.000 A 
ATOM     18  C   UNL     1      -0.021  -1.751  -0.002  0.00  0.00    +0.000 A 
ATOM     19  C   UNL     1       1.192  -1.055   0.003  0.00  0.00    +0.000 A 
ENDBRANCH  10  17
ENDBRANCH   9  10
ENDBRANCH   8   9
ENDBRANCH   2   8
ENDBRANCH   1   5
BRANCH   1  20
ATOM     20  C   UNL     1      -1.123  -9.885   0.744  0.00  0.00    +0.000 C 
ATOM     21  O   UNL     1      -0.377  -8.996   1.144  0.00  0.00    +0.000 OA
ATOM     22  N   UNL     1      -0.613 -11.153   0.820  0.00  0.00    +0.000 N 
ATOM     23  H   UNL     1      -1.118 -11.945   0.449  0.00  0.00    +0.000 HD
BRANCH  22  24
ATOM     24  C   UNL     1       0.687 -11.364   1.394  0.00  0.00    +0.000 A 
ATOM     25  C   UNL     1       1.563 -12.243   0.800  0.00  0.00    +0.000 A 
ATOM     26  C   UNL     1       2.718 -12.598   1.483  0.00  0.00    +0.000 A 
ATOM     27  C   UNL     1       3.184 -11.945   2.594  0.00  0.00    +0.000 A 
ATOM     28  C   UNL     1       4.427 -12.224   2.991  0.00  0.00    +0.000 A 
ATOM     29  N   UNL     1       4.657 -11.571   4.051  0.00  0.00    +0.000 NA
ATOM     30  C   UNL     1       4.942 -10.922   5.149  0.00  0.00    +0.000 A 
ATOM     31  C   UNL     1       3.473 -10.588   4.680  0.00  0.00    +0.000 A 
ATOM     32  C   UNL     1       2.488 -10.997   3.337  0.00  0.00    +0.000 A 
ATOM     33  C   UNL     1       1.127 -10.746   2.614  0.00  0.00    +0.000 A 
ENDBRANCH  22  24
ENDBRANCH   1  20
BRANCH   1  34
ATOM     34  C   UNL     1      -2.576 -10.121  -1.311  0.00  0.00    +0.000 C 
BRANCH  34  35
ATOM     35  N   UNL     1      -3.896  -9.975  -1.922  0.00  0.00    +0.000 NA
ATOM     36  H   UNL     1      -4.606 -10.452  -1.373  0.00  0.00    +0.000 HD
ATOM     37  H   UNL     1      -3.917 -10.284  -2.883  0.00  0.00    +0.000 HD
ENDBRANCH  34  35
ENDBRANCH   1  34
TORSDOF 9
