REMARK  Name = Netilmicin
REMARK  17 active torsions:
REMARK  status: ('A' for Active; 'I' for Inactive)
REMARK    1  A    between atoms: C_1  and  C_2
REMARK    2  A    between atoms: C_2  and  N_3
REMARK    3  A    between atoms: N_3  and  C_4
REMARK    4  A    between atoms: C_6  and  N_7
REMARK    5  A    between atoms: C_8  and  O_9
REMARK    6  A    between atoms: O_9  and  C_10
REMARK    7  A    between atoms: C_12  and  C_13
REMARK    8  A    between atoms: C_13  and  N_14
REMARK    9  A    between atoms: C_17  and  N_18
REMARK   10  A    between atoms: C_19  and  O_20
REMARK   11  A    between atoms: C_21  and  O_22
REMARK   12  A    between atoms: O_22  and  C_23
REMARK   13  A    between atoms: C_26  and  C_27
REMARK   14  A    between atoms: C_26  and  O_28
REMARK   15  A    between atoms: C_29  and  N_30
REMARK   16  A    between atoms: N_30  and  C_31
REMARK   17  A    between atoms: C_32  and  O_33
REMARK                            x       y       z     vdW  Elec       q    Type
REMARK                         _______ _______ _______ _____ _____    ______ ____
ROOT
ATOM      1  C   UNL     1       4.194   1.872  -3.113  0.00  0.00    +0.000 C 
ATOM      2  C   UNL     1       4.672   1.947  -4.545  0.00  0.00    +0.000 C 
ATOM      3  C   UNL     1       4.516   0.578  -5.318  0.00  0.00    +0.000 C 
ATOM      4  C   UNL     1       5.271  -0.611  -4.602  0.00  0.00    +0.000 C 
ATOM      5  C   UNL     1       4.607  -0.685  -3.210  0.00  0.00    +0.000 C 
ATOM      6  C   UNL     1       4.884   0.661  -2.416  0.00  0.00    +0.000 C 
ENDROOT
BRANCH   3   7
ATOM      7  N   UNL     1       3.144   0.331  -5.797  0.00  0.00    +0.000 NA
ATOM      8  H   UNL     1       2.411   0.727  -5.209  0.00  0.00    +0.000 HD
ATOM      9  H   UNL     1       2.981  -0.654  -5.999  0.00  0.00    +0.000 HD
ENDBRANCH   3   7
BRANCH   1  10
ATOM     10  N   UNL     1       2.747   1.799  -3.237  0.00  0.00    +0.000 NA
ATOM     11  H   UNL     1       2.364   2.737  -3.376  0.00  0.00    +0.000 HD
BRANCH  10  13
ATOM     12  C   UNL     1       0.700   0.767  -2.681  0.00  0.00    +0.000 C 
ATOM     13  C   UNL     1       2.079   1.093  -2.167  0.00  0.00    +0.000 C 
ENDBRANCH  10  13
ENDBRANCH   1  10
BRANCH   5  14
ATOM     14  O   UNL     1       3.250  -1.071  -3.441  0.00  0.00    +0.000 OA
ATOM     15  H   UNL     1       2.874  -0.308  -3.913  0.00  0.00    +0.000 HD
ENDBRANCH   5  14
BRANCH   4  16
ATOM     16  O   UNL     1       6.691  -0.390  -4.500  0.00  0.00    +0.000 OA
BRANCH  16  17
ATOM     17  C   UNL     1       7.583  -0.653  -5.611  0.00  0.00    +0.000 C 
ATOM     18  O   UNL     1       7.533  -1.993  -6.054  0.00  0.00    +0.000 OA
ATOM     19  C   UNL     1       6.847  -2.212  -7.228  0.00  0.00    +0.000 C 
ATOM     20  C   UNL     1       6.417  -1.255  -8.032  0.00  0.00    +0.000 C 
ATOM     21  C   UNL     1       6.685   0.197  -7.886  0.00  0.00    +0.000 C 
ATOM     22  C   UNL     1       7.544   0.496  -6.669  0.00  0.00    +0.000 C 
BRANCH  22  23
ATOM     23  N   UNL     1       7.109   1.724  -6.010  0.00  0.00    +0.000 NA
ATOM     24  H   UNL     1       6.779   1.313  -5.125  0.00  0.00    +0.000 HD
ATOM     25  H   UNL     1       6.268   2.090  -6.464  0.00  0.00    +0.000 HD
ENDBRANCH  22  23
BRANCH  19  26
ATOM     26  C   UNL     1       6.704  -3.687  -7.525  0.00  0.00    +0.000 C 
BRANCH  26  27
ATOM     27  N   UNL     1       6.049  -3.913  -8.809  0.00  0.00    +0.000 NA
ATOM     28  H   UNL     1       5.095  -3.565  -8.740  0.00  0.00    +0.000 HD
ATOM     29  H   UNL     1       5.994  -4.908  -8.996  0.00  0.00    +0.000 HD
ENDBRANCH  26  27
ENDBRANCH  19  26
ENDBRANCH  16  17
ENDBRANCH   4  16
BRANCH   6  30
ATOM     30  O   UNL     1       6.313   0.910  -2.227  0.00  0.00    +0.000 OA
BRANCH  30  31
ATOM     31  C   UNL     1       6.891  -0.170  -1.475  0.00  0.00    +0.000 C 
ATOM     32  O   UNL     1       6.806  -1.378  -2.219  0.00  0.00    +0.000 OA
ATOM     33  C   UNL     1       7.058  -2.596  -1.554  0.00  0.00    +0.000 C 
ATOM     34  C   UNL     1       8.521  -2.585  -1.149  0.00  0.00    +0.000 C 
ATOM     35  C   UNL     1       9.379  -2.675  -2.422  0.00  0.00    +0.000 C 
ATOM     36  C   UNL     1       8.758  -1.277  -0.301  0.00  0.00    +0.000 C 
ATOM     37  C   UNL     1       8.375   0.009  -1.110  0.00  0.00    +0.000 C 
BRANCH  36  38
ATOM     38  N   UNL     1       7.956  -1.399   0.971  0.00  0.00    +0.000 NA
ATOM     39  C   UNL     1       8.105  -0.212   1.803  0.00  0.00    +0.000 C 
ATOM     40  H   UNL     1       6.961  -1.503   0.767  0.00  0.00    +0.000 HD
ENDBRANCH  36  38
BRANCH  34  41
ATOM     41  O   UNL     1       8.793  -3.751  -0.365  0.00  0.00    +0.000 OA
ATOM     42  H   UNL     1       8.378  -3.588   0.503  0.00  0.00    +0.000 HD
ENDBRANCH  34  41
BRANCH  37  43
ATOM     43  O   UNL     1       9.227   0.173  -2.248  0.00  0.00    +0.000 OA
ATOM     44  H   UNL     1       8.686  -0.064  -3.025  0.00  0.00    +0.000 HD
ENDBRANCH  37  43
ENDBRANCH  30  31
ENDBRANCH   6  30
TORSDOF 14
