REMARK  Name = Netupitant
REMARK  11 active torsions:
REMARK  status: ('A' for Active; 'I' for Inactive)
REMARK    1  A    between atoms: C_1  and  N_2
REMARK    2  A    between atoms: N_2  and  C_22
REMARK    3  A    between atoms: C_3  and  C_5
REMARK    4  A    between atoms: C_5  and  C_6
REMARK    5  A    between atoms: C_5  and  C_7
REMARK    6  A    between atoms: C_5  and  C_8
REMARK    7  A    between atoms: C_10  and  C_18
REMARK    8  A    between atoms: C_12  and  C_14
REMARK    9  A    between atoms: C_27  and  C_28
REMARK   10  A    between atoms: C_33  and  C_34
REMARK   11  A    between atoms: N_38  and  C_39
REMARK                            x       y       z     vdW  Elec       q    Type
REMARK                         _______ _______ _______ _____ _____    ______ ____
ROOT
ATOM      1  C   UNL     1       0.864  -0.080   0.083  0.00  0.00    +0.000 C 
ATOM      2  N   UNL     1       2.326  -0.015   0.135  0.00  0.00    +0.000 N 
ATOM      3  C   UNL     1       3.073   1.170   0.134  0.00  0.00    +0.000 C 
ATOM      4  O   UNL     1       4.294   1.096  -0.108  0.00  0.00    +0.000 OA
ENDROOT
BRANCH   2   5
ATOM      5  C   UNL     1       3.056  -1.249  -0.123  0.00  0.00    +0.000 A 
ATOM      6  C   UNL     1       4.203  -1.556   0.624  0.00  0.00    +0.000 A 
ATOM      7  N   UNL     1       4.955  -2.685   0.498  0.00  0.00    +0.000 NA
ATOM      8  C   UNL     1       4.623  -3.546  -0.476  0.00  0.00    +0.000 A 
ATOM      9  C   UNL     1       3.536  -3.296  -1.307  0.00  0.00    +0.000 A 
ATOM     10  C   UNL     1       2.728  -2.153  -1.150  0.00  0.00    +0.000 A 
ATOM     11  N   UNL     1       5.246  -4.768  -0.579  0.00  0.00    +0.000 N 
ATOM     12  C   UNL     1       6.075  -5.127  -1.733  0.00  0.00    +0.000 C 
ATOM     13  C   UNL     1       5.929  -6.651  -1.986  0.00  0.00    +0.000 C 
ATOM     14  N   UNL     1       6.268  -7.442  -0.777  0.00  0.00    +0.000 NA
ATOM     15  C   UNL     1       6.147  -8.872  -1.029  0.00  0.00    +0.000 C 
ATOM     16  C   UNL     1       5.367  -7.021   0.324  0.00  0.00    +0.000 C 
ATOM     17  C   UNL     1       5.509  -5.513   0.647  0.00  0.00    +0.000 C 
BRANCH  10  18
ATOM     18  C   UNL     1       1.664  -1.940  -2.151  0.00  0.00    +0.000 A 
ATOM     19  C   UNL     1       0.569  -2.826  -2.190  0.00  0.00    +0.000 A 
ATOM     20  C   UNL     1      -0.461  -2.651  -3.115  0.00  0.00    +0.000 A 
ATOM     21  C   UNL     1      -0.461  -1.542  -3.955  0.00  0.00    +0.000 A 
ATOM     22  C   UNL     1       0.593  -0.635  -3.912  0.00  0.00    +0.000 A 
ATOM     23  C   UNL     1       1.675  -0.838  -3.045  0.00  0.00    +0.000 A 
ATOM     24  C   UNL     1       2.764   0.197  -3.033  0.00  0.00    +0.000 C 
ENDBRANCH  10  18
ENDBRANCH   2   5
BRANCH   3  25
ATOM     25  C   UNL     1       2.382   2.573   0.274  0.00  0.00    +0.000 C 
ATOM     26  C   UNL     1       1.527   2.859  -0.994  0.00  0.00    +0.000 C 
ATOM     27  C   UNL     1       1.555   2.623   1.580  0.00  0.00    +0.000 C 
BRANCH  25  28
ATOM     28  C   UNL     1       3.391   3.757   0.414  0.00  0.00    +0.000 A 
ATOM     29  C   UNL     1       4.713   3.592   0.851  0.00  0.00    +0.000 A 
ATOM     30  C   UNL     1       5.547   4.677   1.140  0.00  0.00    +0.000 A 
ATOM     31  C   UNL     1       5.092   5.970   0.897  0.00  0.00    +0.000 A 
ATOM     32  C   UNL     1       3.779   6.181   0.471  0.00  0.00    +0.000 A 
ATOM     33  C   UNL     1       2.946   5.080   0.243  0.00  0.00    +0.000 A 
BRANCH  32  34
ATOM     34  C   UNL     1       3.242   7.581   0.359  0.00  0.00    +0.000 C 
ATOM     35  F   UNL     1       3.318   8.246   1.544  0.00  0.00    +0.000 F 
ATOM     36  F   UNL     1       3.925   8.329  -0.546  0.00  0.00    +0.000 F 
ATOM     37  F   UNL     1       1.933   7.632  -0.013  0.00  0.00    +0.000 F 
ENDBRANCH  32  34
BRANCH  30  38
ATOM     38  C   UNL     1       6.850   4.409   1.844  0.00  0.00    +0.000 C 
ATOM     39  F   UNL     1       6.651   3.725   3.008  0.00  0.00    +0.000 F 
ATOM     40  F   UNL     1       7.719   3.666   1.111  0.00  0.00    +0.000 F 
ATOM     41  F   UNL     1       7.512   5.545   2.194  0.00  0.00    +0.000 F 
ENDBRANCH  30  38
ENDBRANCH  25  28
ENDBRANCH   3  25
TORSDOF 6
