REMARK  Name = Nevirapine
REMARK  2 active torsions:
REMARK  status: ('A' for Active; 'I' for Inactive)
REMARK    1  A    between atoms: C_1  and  C_2
REMARK    2  A    between atoms: N_13  and  C_14
REMARK                            x       y       z     vdW  Elec       q    Type
REMARK                         _______ _______ _______ _____ _____    ______ ____
ROOT
ATOM      1  C   UNL     1       3.167   1.959  -0.880  0.00  0.00    +0.000 C 
ATOM      2  C   UNL     1       2.683   0.609  -0.435  0.00  0.00    +0.000 A 
ATOM      3  C   UNL     1       1.438   0.409   0.174  0.00  0.00    +0.000 A 
ATOM      4  N   UNL     1       0.645   1.522   0.519  0.00  0.00    +0.000 N 
ATOM      5  C   UNL     1      -0.718   1.647   0.433  0.00  0.00    +0.000 C 
ATOM      6  O   UNL     1      -1.231   2.750   0.645  0.00  0.00    +0.000 OA
ATOM      7  C   UNL     1      -1.577   0.531   0.002  0.00  0.00    +0.000 A 
ATOM      8  C   UNL     1      -1.380  -0.766   0.472  0.00  0.00    +0.000 A 
ATOM      9  N   UNL     1      -2.270  -1.759   0.206  0.00  0.00    +0.000 NA
ATOM     10  C   UNL     1      -3.326  -1.472  -0.585  0.00  0.00    +0.000 A 
ATOM     11  C   UNL     1      -3.570  -0.220  -1.118  0.00  0.00    +0.000 A 
ATOM     12  C   UNL     1      -2.690   0.806  -0.801  0.00  0.00    +0.000 A 
ATOM     13  N   UNL     1      -0.190  -1.106   1.142  0.00  0.00    +0.000 N 
ATOM     14  C   UNL     1       1.050  -0.901   0.501  0.00  0.00    +0.000 A 
ATOM     15  N   UNL     1       1.848  -1.975   0.272  0.00  0.00    +0.000 NA
ATOM     16  C   UNL     1       3.035  -1.762  -0.317  0.00  0.00    +0.000 A 
ATOM     17  C   UNL     1       3.482  -0.510  -0.697  0.00  0.00    +0.000 A 
ATOM     18  H   UNL     1       1.106   2.400   0.718  0.00  0.00    +0.000 HD
ENDROOT
BRANCH  13  19
ATOM     19  C   UNL     1      -0.244  -1.650   2.508  0.00  0.00    +0.000 C 
ATOM     20  C   UNL     1       0.960  -2.169   3.255  0.00  0.00    +0.000 C 
ATOM     21  C   UNL     1       0.356  -0.856   3.652  0.00  0.00    +0.000 C 
ENDBRANCH  13  19
TORSDOF 1
