REMARK  Name = Niacin
REMARK  2 active torsions:
REMARK  status: ('A' for Active; 'I' for Inactive)
REMARK    1  A    between atoms: O_1  and  C_2
REMARK    2  A    between atoms: C_2  and  C_4
REMARK                            x       y       z     vdW  Elec       q    Type
REMARK                         _______ _______ _______ _____ _____    ______ ____
ROOT
ATOM      1  C   UNL     1       3.138  -0.746   1.087  0.00  0.00    +0.000 A 
ATOM      2  C   UNL     1       4.300  -0.204   1.624  0.00  0.00    +0.000 A 
ATOM      3  N   UNL     1       5.124  -0.868   2.472  0.00  0.00    +0.000 NA
ATOM      4  C   UNL     1       4.787  -2.139   2.775  0.00  0.00    +0.000 A 
ATOM      5  C   UNL     1       3.642  -2.763   2.300  0.00  0.00    +0.000 A 
ATOM      6  C   UNL     1       2.796  -2.052   1.443  0.00  0.00    +0.000 A 
ENDROOT
BRANCH   1   7
ATOM      7  C   UNL     1       2.417   0.044   0.074  0.00  0.00    +0.000 C 
ATOM      8  O   UNL     1       3.011   0.750  -0.730  0.00  0.00    +0.000 OA
BRANCH   7   9
ATOM      9  O   UNL     1       1.074  -0.052   0.110  0.00  0.00    +0.000 OA
ATOM     10  H   UNL     1       0.690  -0.537   0.862  0.00  0.00    +0.000 HD
ENDBRANCH   7   9
ENDBRANCH   1   7
TORSDOF 2
