REMARK  Name = Niacinamide ascorbate
REMARK  7 active torsions:
REMARK  status: ('A' for Active; 'I' for Inactive)
REMARK    1  A    between atoms: C_2  and  C_4
REMARK    2  A    between atoms: C_11  and  O_12
REMARK    3  A    between atoms: C_11  and  C_13
REMARK    4  A    between atoms: C_11  and  C_15
REMARK    5  A    between atoms: C_13  and  O_14
REMARK    6  A    between atoms: C_20  and  O_21
REMARK    7  A    between atoms: C_22  and  O_23
REMARK                            x       y       z     vdW  Elec       q    Type
REMARK                         _______ _______ _______ _____ _____    ______ ____
ROOT
ATOM      1  C   UNL     1       3.489   1.216   0.946  0.00  0.00    +0.000 A 
ATOM      2  C   UNL     1       4.598   2.021   0.892  0.00  0.00    +0.000 A 
ATOM      3  N   UNL     1       5.265   2.460   2.003  0.00  0.00    +0.000 NA
ATOM      4  C   UNL     1       4.868   2.088   3.282  0.00  0.00    +0.000 A 
ATOM      5  C   UNL     1       3.703   1.453   3.594  0.00  0.00    +0.000 A 
ATOM      6  C   UNL     1       2.934   1.162   2.464  0.00  0.00    +0.000 A 
ENDROOT
BRANCH   1   8
ATOM      7  N   UNL     1       1.663   0.316  -1.677  0.00  0.00    +0.000 N 
ATOM      8  C   UNL     1       3.140   0.415  -0.742  0.00  0.00    +0.000 C 
ATOM      9  O   UNL     1       4.044  -0.250  -1.408  0.00  0.00    +0.000 OA
ATOM     10  H   UNL     1       0.935  -0.478  -1.588  0.00  0.00    +0.000 HD
ATOM     11  H   UNL     1       0.789   0.856  -1.344  0.00  0.00    +0.000 HD
ENDBRANCH   1   8
TORSDOF 1
REMARK  Name = Niacinamide ascorbate
REMARK  7 active torsions:
REMARK  status: ('A' for Active; 'I' for Inactive)
REMARK    1  A    between atoms: C_2  and  C_4
REMARK    2  A    between atoms: C_11  and  O_12
REMARK    3  A    between atoms: C_11  and  C_13
REMARK    4  A    between atoms: C_11  and  C_15
REMARK    5  A    between atoms: C_13  and  O_14
REMARK    6  A    between atoms: C_20  and  O_21
REMARK    7  A    between atoms: C_22  and  O_23
REMARK                            x       y       z     vdW  Elec       q    Type
REMARK                         _______ _______ _______ _____ _____    ______ ____
ROOT
ATOM      1  C   UNL     2       2.506  -1.068   1.435  0.00  0.00    +0.000 C 
ATOM      2  O   UNL     2       2.282  -2.490   1.451  0.00  0.00    +0.000 OA
ATOM      3  C   UNL     2       3.479  -3.146   1.477  0.00  0.00    +0.000 C 
ATOM      4  O   UNL     2       3.613  -4.348   1.668  0.00  0.00    +0.000 OA
ATOM      5  C   UNL     2       4.627  -2.281   1.341  0.00  0.00    +0.000 C 
ATOM      6  C   UNL     2       4.101  -1.077   1.446  0.00  0.00    +0.000 C 
ENDROOT
BRANCH   5   7
ATOM      7  O   UNL     2       5.959  -2.445   1.638  0.00  0.00    +0.000 OA
ATOM      8  H   UNL     2       6.092  -3.373   1.867  0.00  0.00    +0.000 HD
ENDBRANCH   5   7
BRANCH   6   9
ATOM      9  O   UNL     2       5.036  -0.235   2.072  0.00  0.00    +0.000 OA
ATOM     10  H   UNL     2       5.661   0.201   1.443  0.00  0.00    +0.000 HD
ENDBRANCH   6   9
BRANCH   1  11
ATOM     11  C   UNL     2       1.435  -0.144   0.439  0.00  0.00    +0.000 C 
BRANCH  11  12
ATOM     12  O   UNL     2       1.481  -1.434  -0.663  0.00  0.00    +0.000 OA
ATOM     13  H   UNL     2       2.135  -1.253  -1.420  0.00  0.00    +0.000 HD
ENDBRANCH  11  12
BRANCH  11  14
ATOM     14  C   UNL     2       1.586   1.809  -0.059  0.00  0.00    +0.000 C 
BRANCH  14  15
ATOM     15  O   UNL     2       1.374   2.370  -1.479  0.00  0.00    +0.000 OA
ATOM     16  H   UNL     2       1.940   1.780  -2.098  0.00  0.00    +0.000 HD
ENDBRANCH  14  15
ENDBRANCH  11  14
ENDBRANCH   1  11
TORSDOF 6
