REMARK  Name = Nialamide
REMARK  7 active torsions:
REMARK  status: ('A' for Active; 'I' for Inactive)
REMARK    1  A    between atoms: C_2  and  C_3
REMARK    2  A    between atoms: C_3  and  C_4
REMARK    3  A    between atoms: C_4  and  N_5
REMARK    4  A    between atoms: N_5  and  N_6
REMARK    5  A    between atoms: C_7  and  C_9
REMARK    6  A    between atoms: N_15  and  C_16
REMARK    7  A    between atoms: C_16  and  C_17
REMARK                            x       y       z     vdW  Elec       q    Type
REMARK                         _______ _______ _______ _____ _____    ______ ____
ROOT
ATOM      1  C   UNL     1       2.119   1.650   1.931  0.00  0.00    +0.000 C 
ENDROOT
BRANCH   1   2
ATOM      2  N   UNL     1       2.825   2.489   2.909  0.00  0.00    +0.000 NA
ATOM      3  H   UNL     1       3.448   3.154   2.440  0.00  0.00    +0.000 HD
BRANCH   2   4
ATOM      4  N   UNL     1       1.932   3.226   3.732  0.00  0.00    +0.000 N 
ATOM      5  C   UNL     1       2.430   4.121   4.677  0.00  0.00    +0.000 C 
ATOM      6  O   UNL     1       3.621   4.385   4.836  0.00  0.00    +0.000 OA
ATOM      7  H   UNL     1       0.929   3.123   3.599  0.00  0.00    +0.000 HD
BRANCH   5   8
ATOM      8  C   UNL     1       1.409   4.829   5.499  0.00  0.00    +0.000 A 
ATOM      9  C   UNL     1       0.332   4.140   6.055  0.00  0.00    +0.000 A 
ATOM     10  C   UNL     1      -0.581   4.862   6.807  0.00  0.00    +0.000 A 
ATOM     11  N   UNL     1      -0.495   6.191   7.021  0.00  0.00    +0.000 NA
ATOM     12  C   UNL     1       0.570   6.830   6.490  0.00  0.00    +0.000 A 
ATOM     13  C   UNL     1       1.549   6.198   5.741  0.00  0.00    +0.000 A 
ENDBRANCH   5   8
ENDBRANCH   2   4
ENDBRANCH   1   2
BRANCH   1  14
ATOM     14  C   UNL     1       3.095   0.865   1.049  0.00  0.00    +0.000 C 
BRANCH  14  16
ATOM     15  O   UNL     1       1.117  -0.061   0.007  0.00  0.00    +0.000 OA
ATOM     16  C   UNL     1       2.345  -0.006   0.058  0.00  0.00    +0.000 C 
ATOM     17  N   UNL     1       3.081  -0.754  -0.814  0.00  0.00    +0.000 N 
ATOM     18  H   UNL     1       2.532  -1.309  -1.461  0.00  0.00    +0.000 HD
BRANCH  17  19
ATOM     19  C   UNL     1       4.523  -0.831  -0.891  0.00  0.00    +0.000 C 
BRANCH  19  20
ATOM     20  C   UNL     1       4.977  -1.801  -1.948  0.00  0.00    +0.000 A 
ATOM     21  C   UNL     1       4.557  -3.139  -1.900  0.00  0.00    +0.000 A 
ATOM     22  C   UNL     1       5.022  -4.063  -2.834  0.00  0.00    +0.000 A 
ATOM     23  C   UNL     1       5.862  -3.648  -3.864  0.00  0.00    +0.000 A 
ATOM     24  C   UNL     1       6.285  -2.321  -3.926  0.00  0.00    +0.000 A 
ATOM     25  C   UNL     1       5.856  -1.403  -2.965  0.00  0.00    +0.000 A 
ENDBRANCH  19  20
ENDBRANCH  17  19
ENDBRANCH  14  16
ENDBRANCH   1  14
TORSDOF 7
