REMARK  Name = Nicardipine
REMARK  15 active torsions:
REMARK  status: ('A' for Active; 'I' for Inactive)
REMARK    1  A    between atoms: C_1  and  O_2
REMARK    2  A    between atoms: O_2  and  C_3
REMARK    3  A    between atoms: C_3  and  C_5
REMARK    4  A    between atoms: C_6  and  C_7
REMARK    5  A    between atoms: C_9  and  C_10
REMARK    6  A    between atoms: C_11  and  C_22
REMARK    7  A    between atoms: C_12  and  C_13
REMARK    8  A    between atoms: C_15  and  N_19
REMARK    9  A    between atoms: C_22  and  O_24
REMARK   10  A    between atoms: O_24  and  C_25
REMARK   11  A    between atoms: C_25  and  C_26
REMARK   12  A    between atoms: C_26  and  N_27
REMARK   13  A    between atoms: N_27  and  C_28
REMARK   14  A    between atoms: N_27  and  C_29
REMARK   15  A    between atoms: C_29  and  C_30
REMARK                            x       y       z     vdW  Elec       q    Type
REMARK                         _______ _______ _______ _____ _____    ______ ____
ROOT
ATOM      1  C   UNL     1       4.552   1.006  -0.756  0.00  0.00    +0.000 C 
ATOM      2  C   UNL     1       5.232  -0.134  -1.019  0.00  0.00    +0.000 C 
ATOM      3  C   UNL     1       4.631  -1.481  -1.311  0.00  0.00    +0.000 C 
ATOM      4  N   UNL     1       6.617  -0.097  -1.077  0.00  0.00    +0.000 N 
ATOM      5  C   UNL     1       7.364   1.061  -1.229  0.00  0.00    +0.000 C 
ATOM      6  C   UNL     1       8.793   0.851  -1.672  0.00  0.00    +0.000 C 
ATOM      7  C   UNL     1       6.789   2.269  -0.988  0.00  0.00    +0.000 C 
ATOM      8  C   UNL     1       5.328   2.310  -0.483  0.00  0.00    +0.000 C 
ATOM      9  H   UNL     1       7.103  -0.982  -1.203  0.00  0.00    +0.000 HD
ENDROOT
BRANCH   8  10
ATOM     10  C   UNL     1       5.335   2.572   1.030  0.00  0.00    +0.000 A 
ATOM     11  C   UNL     1       4.828   3.763   1.559  0.00  0.00    +0.000 A 
ATOM     12  C   UNL     1       5.037   4.050   2.916  0.00  0.00    +0.000 A 
ATOM     13  C   UNL     1       5.614   3.106   3.778  0.00  0.00    +0.000 A 
ATOM     14  C   UNL     1       6.071   1.899   3.263  0.00  0.00    +0.000 A 
ATOM     15  C   UNL     1       5.947   1.645   1.902  0.00  0.00    +0.000 A 
BRANCH  12  16
ATOM     16  N   UNL     1       4.781   5.405   3.414  0.00  0.00    +0.000 N 
ATOM     17  O   UNL     1       4.342   6.242   2.612  0.00  0.00    +0.000 OA
ATOM     18  O   UNL     1       5.063   5.647   4.597  0.00  0.00    +0.000 OA
ENDBRANCH  12  16
ENDBRANCH   8  10
BRANCH   1  19
ATOM     19  C   UNL     1       3.070   1.103  -0.751  0.00  0.00    +0.000 C 
ATOM     20  O   UNL     1       2.464   2.023  -1.294  0.00  0.00    +0.000 OA
BRANCH  19  22
ATOM     21  C   UNL     1       1.056   0.052  -0.101  0.00  0.00    +0.000 C 
ATOM     22  O   UNL     1       2.491   0.089  -0.059  0.00  0.00    +0.000 OA
ENDBRANCH  19  22
ENDBRANCH   1  19
BRANCH   7  23
ATOM     23  C   UNL     1       7.580   3.524  -1.164  0.00  0.00    +0.000 C 
ATOM     24  O   UNL     1       8.738   3.548  -1.572  0.00  0.00    +0.000 OA
BRANCH  23  25
ATOM     25  O   UNL     1       6.886   4.651  -0.840  0.00  0.00    +0.000 OA
BRANCH  25  26
ATOM     26  C   UNL     1       7.662   5.846  -1.074  0.00  0.00    +0.000 C 
BRANCH  26  27
ATOM     27  C   UNL     1       6.844   7.115  -0.781  0.00  0.00    +0.000 C 
BRANCH  27  28
ATOM     28  N   UNL     1       7.601   8.353  -1.063  0.00  0.00    +0.000 NA
ATOM     29  C   UNL     1       7.966   8.436  -2.485  0.00  0.00    +0.000 C 
BRANCH  28  30
ATOM     30  C   UNL     1       6.818   9.541  -0.661  0.00  0.00    +0.000 C 
BRANCH  30  31
ATOM     31  C   UNL     1       7.583  10.848  -0.783  0.00  0.00    +0.000 A 
ATOM     32  C   UNL     1       8.989  10.884  -0.833  0.00  0.00    +0.000 A 
ATOM     33  C   UNL     1       9.680  12.085  -0.930  0.00  0.00    +0.000 A 
ATOM     34  C   UNL     1       8.971  13.278  -0.973  0.00  0.00    +0.000 A 
ATOM     35  C   UNL     1       7.577  13.269  -0.898  0.00  0.00    +0.000 A 
ATOM     36  C   UNL     1       6.883  12.061  -0.805  0.00  0.00    +0.000 A 
ENDBRANCH  30  31
ENDBRANCH  28  30
ENDBRANCH  27  28
ENDBRANCH  26  27
ENDBRANCH  25  26
ENDBRANCH  23  25
ENDBRANCH   7  23
TORSDOF 11
