REMARK  Name = Nicergoline
REMARK  8 active torsions:
REMARK  status: ('A' for Active; 'I' for Inactive)
REMARK    1  A    between atoms: N_6  and  C_7
REMARK    2  A    between atoms: C_14  and  O_31
REMARK    3  A    between atoms: C_16  and  C_17
REMARK    4  A    between atoms: C_17  and  O_18
REMARK    5  A    between atoms: O_18  and  C_19
REMARK    6  A    between atoms: C_19  and  C_21
REMARK    7  A    between atoms: N_29  and  C_30
REMARK    8  A    between atoms: O_31  and  C_32
REMARK                            x       y       z     vdW  Elec       q    Type
REMARK                         _______ _______ _______ _____ _____    ______ ____
ROOT
ATOM      1  C   UNL     1       2.609  -0.026  -0.252  0.00  0.00    +0.000 C 
ATOM      2  C   UNL     1       2.636  -1.497   0.578  0.00  0.00    +0.000 C 
ATOM      3  C   UNL     1       3.990  -1.461   1.067  0.00  0.00    +0.000 A 
ATOM      4  C   UNL     1       5.035  -2.304   1.136  0.00  0.00    +0.000 A 
ATOM      5  N   UNL     1       6.125  -1.507   1.361  0.00  0.00    +0.000 N 
ATOM      6  C   UNL     1       7.445  -2.048   1.525  0.00  0.00    +0.000 C 
ATOM      7  C   UNL     1       5.762  -0.180   1.512  0.00  0.00    +0.000 A 
ATOM      8  C   UNL     1       6.505   1.008   1.556  0.00  0.00    +0.000 A 
ATOM      9  C   UNL     1       5.754   2.163   1.740  0.00  0.00    +0.000 A 
ATOM     10  C   UNL     1       4.326   2.079   1.971  0.00  0.00    +0.000 A 
ATOM     11  C   UNL     1       3.475   0.835   1.739  0.00  0.00    +0.000 A 
ATOM     12  C   UNL     1       4.372  -0.229   1.579  0.00  0.00    +0.000 A 
ATOM     13  C   UNL     1       1.881   0.724   0.859  0.00  0.00    +0.000 C 
ATOM     14  C   UNL     1       0.452  -0.405   0.028  0.00  0.00    +0.000 C 
ATOM     15  C   UNL     1       0.608  -0.889  -1.791  0.00  0.00    +0.000 C 
ATOM     16  C   UNL     1       2.121  -1.114  -2.216  0.00  0.00    +0.000 C 
ATOM     17  N   UNL     1       2.930   0.015  -1.725  0.00  0.00    +0.000 NA
ATOM     18  C   UNL     1       2.393   1.213  -2.500  0.00  0.00    +0.000 C 
ENDROOT
BRANCH  13  19
ATOM     19  O   UNL     1       1.826   2.166   0.588  0.00  0.00    +0.000 OA
ATOM     20  C   UNL     1       3.035   2.635  -0.060  0.00  0.00    +0.000 C 
ENDBRANCH  13  19
BRANCH  15  21
ATOM     21  C   UNL     1      -0.153   0.068  -2.807  0.00  0.00    +0.000 C 
BRANCH  21  22
ATOM     22  O   UNL     1      -0.837   1.047  -1.994  0.00  0.00    +0.000 OA
BRANCH  22  23
ATOM     23  C   UNL     1      -1.058   2.276  -2.472  0.00  0.00    +0.000 C 
ATOM     24  O   UNL     1      -0.907   2.637  -3.661  0.00  0.00    +0.000 OA
BRANCH  23  25
ATOM     25  C   UNL     1      -1.580   3.166  -1.424  0.00  0.00    +0.000 A 
ATOM     26  C   UNL     1      -2.760   3.843  -1.674  0.00  0.00    +0.000 A 
ATOM     27  N   UNL     1      -3.339   4.715  -0.809  0.00  0.00    +0.000 NA
ATOM     28  C   UNL     1      -2.693   4.941   0.361  0.00  0.00    +0.000 A 
ATOM     29  C   UNL     1      -1.500   4.328   0.698  0.00  0.00    +0.000 A 
ATOM     30 BR   UNL     1      -0.658   4.719   2.342  0.00  0.00    +0.000 Br
ATOM     31  C   UNL     1      -0.940   3.428  -0.210  0.00  0.00    +0.000 A 
ENDBRANCH  23  25
ENDBRANCH  22  23
ENDBRANCH  21  22
ENDBRANCH  15  21
TORSDOF 5
