REMARK  Name = Nickel sulfate
REMARK  0 active torsions:
REMARK  status: ('A' for Active; 'I' for Inactive)
REMARK                            x       y       z     vdW  Elec       q    Type
REMARK                         _______ _______ _______ _____ _____    ______ ____
ROOT
ATOM      1 NI   UNL     1       0.923   0.028  -0.057  0.00  0.00    +0.000 Ni
ENDROOT
TORSDOF 0
REMARK  Name = Nickel sulfate
REMARK  0 active torsions:
REMARK  status: ('A' for Active; 'I' for Inactive)
REMARK                            x       y       z     vdW  Elec       q    Type
REMARK                         _______ _______ _______ _____ _____    ______ ____
ROOT
ATOM      1  O   UNL     1       1.088  -0.045   0.015  0.00  0.00    +0.000 OA
ATOM      2  S   UNL     1       2.798  -0.045   0.015  0.00  0.00    +0.000 S 
ATOM      3  O   UNL     1       3.368  -1.655   0.086  0.00  0.00    +0.000 OA
ATOM      4  O   UNL     1       3.308   0.621  -1.265  0.00  0.00    +0.000 OA
ATOM      5  O   UNL     1       3.308   0.731   1.232  0.00  0.00    +0.000 OA
ENDROOT
TORSDOF 0
