REMARK  Name = Niclosamide
REMARK  4 active torsions:
REMARK  status: ('A' for Active; 'I' for Inactive)
REMARK    1  A    between atoms: O_1  and  C_2
REMARK    2  A    between atoms: C_3  and  C_9
REMARK    3  A    between atoms: N_11  and  C_12
REMARK    4  A    between atoms: C_16  and  N_19
REMARK                            x       y       z     vdW  Elec       q    Type
REMARK                         _______ _______ _______ _____ _____    ______ ____
ROOT
ATOM      1  C   UNL     1      -1.992  -2.554  -0.064  0.00  0.00    +0.000 C 
ATOM      2  O   UNL     1      -1.259  -3.540  -0.204  0.00  0.00    +0.000 OA
ATOM      3  N   UNL     1      -3.380  -2.659  -0.013  0.00  0.00    +0.000 N 
ATOM      4  H   UNL     1      -3.931  -1.922  -0.410  0.00  0.00    +0.000 HD
ENDROOT
BRANCH   1   6
ATOM      5  C   UNL     1      -1.963   0.054  -0.021  0.00  0.00    +0.000 A 
ATOM      6  C   UNL     1      -1.334  -1.200  -0.022  0.00  0.00    +0.000 A 
ATOM      7  C   UNL     1       0.086  -1.213  -0.005  0.00  0.00    +0.000 A 
ATOM      8  C   UNL     1       0.829  -0.028   0.003  0.00  0.00    +0.000 A 
ATOM      9 CL   UNL     1       2.550  -0.073   0.004  0.00  0.00    +0.000 Cl
ATOM     10  C   UNL     1       0.185   1.199   0.002  0.00  0.00    +0.000 A 
ATOM     11  C   UNL     1      -1.205   1.234  -0.007  0.00  0.00    +0.000 A 
BRANCH   5  12
ATOM     12  O   UNL     1      -3.302   0.315  -0.083  0.00  0.00    +0.000 OA
ATOM     13  H   UNL     1      -3.827  -0.402   0.285  0.00  0.00    +0.000 HD
ENDBRANCH   5  12
ENDBRANCH   1   6
BRANCH   3  14
ATOM     14  C   UNL     1      -4.059  -3.906   0.039  0.00  0.00    +0.000 A 
ATOM     15  C   UNL     1      -3.709  -4.953   0.911  0.00  0.00    +0.000 A 
ATOM     16 CL   UNL     1      -2.525  -4.787   2.163  0.00  0.00    +0.000 Cl
ATOM     17  C   UNL     1      -4.443  -6.140   0.913  0.00  0.00    +0.000 A 
ATOM     18  C   UNL     1      -5.533  -6.288   0.049  0.00  0.00    +0.000 A 
ATOM     19  C   UNL     1      -5.918  -5.245  -0.802  0.00  0.00    +0.000 A 
ATOM     20  C   UNL     1      -5.191  -4.050  -0.788  0.00  0.00    +0.000 A 
BRANCH  18  21
ATOM     21  N   UNL     1      -6.289  -7.545   0.062  0.00  0.00    +0.000 N 
ATOM     22  O   UNL     1      -5.926  -8.424   0.855  0.00  0.00    +0.000 OA
ATOM     23  O   UNL     1      -7.247  -7.649  -0.717  0.00  0.00    +0.000 OA
ENDBRANCH  18  21
ENDBRANCH   3  14
TORSDOF 4
