REMARK  Name = Nicorandil
REMARK  5 active torsions:
REMARK  status: ('A' for Active; 'I' for Inactive)
REMARK    1  A    between atoms: N_2  and  O_4
REMARK    2  A    between atoms: O_4  and  C_5
REMARK    3  A    between atoms: C_5  and  C_6
REMARK    4  A    between atoms: C_6  and  N_7
REMARK    5  A    between atoms: C_8  and  C_10
REMARK                            x       y       z     vdW  Elec       q    Type
REMARK                         _______ _______ _______ _____ _____    ______ ____
ROOT
ATOM      1  N   UNL     1       6.419  -1.835   1.916  0.00  0.00    +0.000 N 
ATOM      2  C   UNL     1       7.081  -2.706   2.768  0.00  0.00    +0.000 C 
ATOM      3  O   UNL     1       6.501  -3.490   3.510  0.00  0.00    +0.000 OA
ATOM      4  H   UNL     1       6.956  -1.296   1.248  0.00  0.00    +0.000 HD
ENDROOT
BRANCH   2   5
ATOM      5  C   UNL     1       8.564  -2.682   2.745  0.00  0.00    +0.000 A 
ATOM      6  C   UNL     1       9.300  -1.496   2.712  0.00  0.00    +0.000 A 
ATOM      7  C   UNL     1      10.696  -1.553   2.754  0.00  0.00    +0.000 A 
ATOM      8  C   UNL     1      11.309  -2.795   2.823  0.00  0.00    +0.000 A 
ATOM      9  N   UNL     1      10.627  -3.960   2.855  0.00  0.00    +0.000 NA
ATOM     10  C   UNL     1       9.270  -3.877   2.831  0.00  0.00    +0.000 A 
ENDBRANCH   2   5
BRANCH   1  11
ATOM     11  C   UNL     1       4.960  -1.822   1.849  0.00  0.00    +0.000 C 
BRANCH  11  12
ATOM     12  C   UNL     1       4.381  -0.854   0.808  0.00  0.00    +0.000 C 
BRANCH  12  13
ATOM     13  O   UNL     1       2.956  -0.919   0.873  0.00  0.00    +0.000 OA
BRANCH  13  15
ATOM     14  O   UNL     1       1.092  -0.109   0.008  0.00  0.00    +0.000 OA
ATOM     15  N   UNL     1       2.320  -0.052  -0.053  0.00  0.00    +0.000 N 
ATOM     16  O   UNL     1       3.045   0.628  -0.778  0.00  0.00    +0.000 OA
ENDBRANCH  13  15
ENDBRANCH  12  13
ENDBRANCH  11  12
ENDBRANCH   1  11
TORSDOF 5
