REMARK  Name = Nicotine
REMARK  2 active torsions:
REMARK  status: ('A' for Active; 'I' for Inactive)
REMARK    1  A    between atoms: C_1  and  N_2
REMARK    2  A    between atoms: C_6  and  C_7
REMARK                            x       y       z     vdW  Elec       q    Type
REMARK                         _______ _______ _______ _____ _____    ______ ____
ROOT
ATOM      1  C   UNL     1      -2.143   0.021   0.046  0.00  0.00    +0.000 C 
ATOM      2  N   UNL     1      -0.733  -0.011  -0.312  0.00  0.00    +0.000 NA
ATOM      3  C   UNL     1      -0.008   1.212   0.019  0.00  0.00    +0.000 C 
ATOM      4  C   UNL     1       1.460   0.791  -0.057  0.00  0.00    +0.000 C 
ATOM      5  C   UNL     1       1.463  -0.738  -0.034  0.00  0.00    +0.000 C 
ATOM      6  C   UNL     1       0.019  -1.139   0.268  0.00  0.00    +0.000 C 
ENDROOT
BRANCH   6   7
ATOM      7  C   UNL     1      -0.208  -1.400   1.748  0.00  0.00    +0.000 A 
ATOM      8  C   UNL     1       0.079  -0.457   2.738  0.00  0.00    +0.000 A 
ATOM      9  N   UNL     1      -0.180  -0.604   4.055  0.00  0.00    +0.000 NA
ATOM     10  C   UNL     1      -0.718  -1.774   4.426  0.00  0.00    +0.000 A 
ATOM     11  C   UNL     1      -1.001  -2.805   3.545  0.00  0.00    +0.000 A 
ATOM     12  C   UNL     1      -0.750  -2.609   2.186  0.00  0.00    +0.000 A 
ENDBRANCH   6   7
TORSDOF 1
