REMARK  Name = Nicoboxil
REMARK  9 active torsions:
REMARK  status: ('A' for Active; 'I' for Inactive)
REMARK    1  A    between atoms: C_1  and  C_2
REMARK    2  A    between atoms: C_2  and  C_3
REMARK    3  A    between atoms: C_3  and  C_4
REMARK    4  A    between atoms: C_4  and  O_5
REMARK    5  A    between atoms: O_5  and  C_6
REMARK    6  A    between atoms: C_6  and  C_7
REMARK    7  A    between atoms: C_7  and  O_8
REMARK    8  A    between atoms: O_8  and  C_9
REMARK    9  A    between atoms: C_9  and  C_11
REMARK                            x       y       z     vdW  Elec       q    Type
REMARK                         _______ _______ _______ _____ _____    ______ ____
ROOT
ATOM      1  O   UNL     1       8.467   2.899   2.941  0.00  0.00    +0.000 OA
ENDROOT
BRANCH   1   2
ATOM      2  C   UNL     1       9.036   3.733   3.853  0.00  0.00    +0.000 C 
ATOM      3  O   UNL     1       8.435   4.430   4.659  0.00  0.00    +0.000 OA
BRANCH   2   4
ATOM      4  C   UNL     1      10.513   3.680   3.807  0.00  0.00    +0.000 A 
ATOM      5  C   UNL     1      11.224   3.710   5.002  0.00  0.00    +0.000 A 
ATOM      6  N   UNL     1      12.582   3.733   5.082  0.00  0.00    +0.000 NA
ATOM      7  C   UNL     1      13.260   3.749   3.916  0.00  0.00    +0.000 A 
ATOM      8  C   UNL     1      12.643   3.730   2.674  0.00  0.00    +0.000 A 
ATOM      9  C   UNL     1      11.245   3.692   2.618  0.00  0.00    +0.000 A 
ENDBRANCH   2   4
ENDBRANCH   1   2
BRANCH   1  10
ATOM     10  C   UNL     1       7.020   2.882   2.971  0.00  0.00    +0.000 C 
BRANCH  10  11
ATOM     11  C   UNL     1       6.489   1.870   1.953  0.00  0.00    +0.000 C 
BRANCH  11  12
ATOM     12  O   UNL     1       5.057   1.857   1.943  0.00  0.00    +0.000 OA
BRANCH  12  13
ATOM     13  C   UNL     1       4.567   0.914   0.986  0.00  0.00    +0.000 C 
BRANCH  13  14
ATOM     14  C   UNL     1       3.044   0.915   0.987  0.00  0.00    +0.000 C 
BRANCH  14  16
ATOM     15  C   UNL     1       0.987  -0.097  -0.041  0.00  0.00    +0.000 C 
ATOM     16  C   UNL     1       2.505  -0.088  -0.032  0.00  0.00    +0.000 C 
ENDBRANCH  14  16
ENDBRANCH  13  14
ENDBRANCH  12  13
ENDBRANCH  11  12
ENDBRANCH  10  11
ENDBRANCH   1  10
TORSDOF 8
