REMARK  Name = Nicotinamide
REMARK  1 active torsions:
REMARK  status: ('A' for Active; 'I' for Inactive)
REMARK    1  A    between atoms: C_2  and  C_4
REMARK                            x       y       z     vdW  Elec       q    Type
REMARK                         _______ _______ _______ _____ _____    ______ ____
ROOT
ATOM      1  C   UNL     1       3.071   1.260   0.217  0.00  0.00    +0.000 A 
ATOM      2  C   UNL     1       2.693   2.154   1.219  0.00  0.00    +0.000 A 
ATOM      3  C   UNL     1       3.438   3.317   1.409  0.00  0.00    +0.000 A 
ATOM      4  C   UNL     1       4.529   3.545   0.583  0.00  0.00    +0.000 A 
ATOM      5  N   UNL     1       4.915   2.702  -0.400  0.00  0.00    +0.000 NA
ATOM      6  C   UNL     1       4.184   1.568  -0.554  0.00  0.00    +0.000 A 
ENDROOT
BRANCH   1   8
ATOM      7  N   UNL     1       0.997   0.014   0.069  0.00  0.00    +0.000 N 
ATOM      8  C   UNL     1       2.362  -0.014  -0.003  0.00  0.00    +0.000 C 
ATOM      9  O   UNL     1       2.971  -1.046  -0.252  0.00  0.00    +0.000 OA
ATOM     10  H   UNL     1       0.505  -0.847  -0.134  0.00  0.00    +0.000 HD
ATOM     11  H   UNL     1       0.458   0.866   0.134  0.00  0.00    +0.000 HD
ENDBRANCH   1   8
TORSDOF 1
