REMARK  Name = Nifedipine
REMARK  10 active torsions:
REMARK  status: ('A' for Active; 'I' for Inactive)
REMARK    1  A    between atoms: C_1  and  O_2
REMARK    2  A    between atoms: O_2  and  C_3
REMARK    3  A    between atoms: C_3  and  C_5
REMARK    4  A    between atoms: C_6  and  C_7
REMARK    5  A    between atoms: C_9  and  C_10
REMARK    6  A    between atoms: C_11  and  C_22
REMARK    7  A    between atoms: C_12  and  C_13
REMARK    8  A    between atoms: C_18  and  N_19
REMARK    9  A    between atoms: C_22  and  O_24
REMARK   10  A    between atoms: O_24  and  C_25
REMARK                            x       y       z     vdW  Elec       q    Type
REMARK                         _______ _______ _______ _____ _____    ______ ____
ROOT
ATOM      1  C   UNL     1       4.483   1.110   0.788  0.00  0.00    +0.000 C 
ATOM      2  C   UNL     1       5.115   1.216  -0.405  0.00  0.00    +0.000 C 
ATOM      3  C   UNL     1       4.529   0.826  -1.745  0.00  0.00    +0.000 C 
ATOM      4  N   UNL     1       6.494   1.460  -0.444  0.00  0.00    +0.000 N 
ATOM      5  C   UNL     1       7.291   1.677   0.678  0.00  0.00    +0.000 C 
ATOM      6  C   UNL     1       8.761   1.854   0.370  0.00  0.00    +0.000 C 
ATOM      7  C   UNL     1       6.753   1.653   1.923  0.00  0.00    +0.000 C 
ATOM      8  C   UNL     1       5.310   1.127   2.094  0.00  0.00    +0.000 C 
ATOM      9  H   UNL     1       6.952   0.833  -1.114  0.00  0.00    +0.000 HD
ENDROOT
BRANCH   8  10
ATOM     10  C   UNL     1       5.357  -0.289   2.765  0.00  0.00    +0.000 A 
ATOM     11  C   UNL     1       4.828  -0.382   4.084  0.00  0.00    +0.000 A 
ATOM     12  C   UNL     1       4.977  -1.543   4.863  0.00  0.00    +0.000 A 
ATOM     13  C   UNL     1       5.565  -2.679   4.334  0.00  0.00    +0.000 A 
ATOM     14  C   UNL     1       6.056  -2.642   3.046  0.00  0.00    +0.000 A 
ATOM     15  C   UNL     1       5.966  -1.481   2.251  0.00  0.00    +0.000 A 
BRANCH  15  16
ATOM     16  N   UNL     1       6.511  -1.729   0.900  0.00  0.00    +0.000 N 
ATOM     17  O   UNL     1       7.190  -2.739   0.706  0.00  0.00    +0.000 OA
ATOM     18  O   UNL     1       6.208  -0.994  -0.029  0.00  0.00    +0.000 OA
ENDBRANCH  15  16
ENDBRANCH   8  10
BRANCH   1  19
ATOM     19  C   UNL     1       3.005   1.004   0.916  0.00  0.00    +0.000 C 
ATOM     20  O   UNL     1       2.370   1.765   1.633  0.00  0.00    +0.000 OA
BRANCH  19  22
ATOM     21  C   UNL     1       1.020   0.009   0.123  0.00  0.00    +0.000 C 
ATOM     22  O   UNL     1       2.458   0.005   0.172  0.00  0.00    +0.000 OA
ENDBRANCH  19  22
ENDBRANCH   1  19
BRANCH   7  23
ATOM     23  C   UNL     1       7.572   2.152   3.079  0.00  0.00    +0.000 C 
ATOM     24  O   UNL     1       8.743   2.501   2.988  0.00  0.00    +0.000 OA
BRANCH  23  25
ATOM     25  O   UNL     1       6.870   2.250   4.241  0.00  0.00    +0.000 OA
ATOM     26  C   UNL     1       7.633   2.842   5.314  0.00  0.00    +0.000 C 
ENDBRANCH  23  25
ENDBRANCH   7  23
TORSDOF 6
