REMARK  Name = Nifurtimox
REMARK  4 active torsions:
REMARK  status: ('A' for Active; 'I' for Inactive)
REMARK    1  A    between atoms: C_1  and  C_2
REMARK    2  A    between atoms: N_9  and  N_10
REMARK    3  A    between atoms: C_11  and  C_12
REMARK    4  A    between atoms: C_15  and  N_17
REMARK                            x       y       z     vdW  Elec       q    Type
REMARK                         _______ _______ _______ _____ _____    ______ ____
ROOT
ATOM      1  N   UNL     1       3.727   2.194  -0.567  0.00  0.00    +0.000 NA
ATOM      2  C   UNL     1       4.188   2.444   0.628  0.00  0.00    +0.000 C 
ENDROOT
BRANCH   1  11
ATOM      3  C   UNL     1       0.963   0.159   0.194  0.00  0.00    +0.000 C 
ATOM      4  C   UNL     1       2.492   0.071   0.108  0.00  0.00    +0.000 C 
ATOM      5  C   UNL     1       2.993  -1.345  -0.176  0.00  0.00    +0.000 C 
ATOM      6  S   UNL     1       2.488  -1.909  -1.775  0.00  0.00    +0.000 S 
ATOM      7  O   UNL     1       1.048  -1.919  -1.868  0.00  0.00    +0.000 OA
ATOM      8  O   UNL     1       3.235  -3.124  -2.071  0.00  0.00    +0.000 OA
ATOM      9  C   UNL     1       3.132  -0.602  -2.776  0.00  0.00    +0.000 C 
ATOM     10  C   UNL     1       2.662   0.758  -2.265  0.00  0.00    +0.000 C 
ATOM     11  N   UNL     1       3.075   1.018  -0.860  0.00  0.00    +0.000 N 
ENDBRANCH   1  11
BRANCH   2  12
ATOM     12  C   UNL     1       4.893   3.685   0.921  0.00  0.00    +0.000 A 
ATOM     13  C   UNL     1       4.673   4.957   0.424  0.00  0.00    +0.000 A 
ATOM     14  C   UNL     1       5.618   5.823   1.015  0.00  0.00    +0.000 A 
ATOM     15  C   UNL     1       6.381   5.036   1.842  0.00  0.00    +0.000 A 
ATOM     16  O   UNL     1       5.942   3.732   1.834  0.00  0.00    +0.000 OA
BRANCH  15  17
ATOM     17  N   UNL     1       7.508   5.408   2.654  0.00  0.00    +0.000 N 
ATOM     18  O   UNL     1       8.069   4.537   3.327  0.00  0.00    +0.000 OA
ATOM     19  O   UNL     1       7.835   6.605   2.606  0.00  0.00    +0.000 OA
ENDBRANCH  15  17
ENDBRANCH   2  12
TORSDOF 3
