REMARK  Name = Nilotinib
REMARK  8 active torsions:
REMARK  status: ('A' for Active; 'I' for Inactive)
REMARK    1  A    between atoms: C_1  and  C_2
REMARK    2  A    between atoms: N_4  and  C_7
REMARK    3  A    between atoms: C_9  and  N_10
REMARK    4  A    between atoms: C_11  and  C_13
REMARK    5  A    between atoms: C_16  and  C_17
REMARK    6  A    between atoms: C_18  and  N_19
REMARK    7  A    between atoms: C_24  and  C_26
REMARK    8  A    between atoms: C_34  and  C_36
REMARK                            x       y       z     vdW  Elec       q    Type
REMARK                         _______ _______ _______ _____ _____    ______ ____
ROOT
ATOM      1  C   UNL     1      11.562   1.439  -2.210  0.00  0.00    +0.000 A 
ATOM      2  C   UNL     1      12.826   1.243  -1.648  0.00  0.00    +0.000 A 
ATOM      3  C   UNL     1      13.923   1.006  -2.471  0.00  0.00    +0.000 A 
ATOM      4  C   UNL     1      13.762   0.903  -3.864  0.00  0.00    +0.000 A 
ATOM      5  C   UNL     1      14.941   0.480  -4.695  0.00  0.00    +0.000 C 
ATOM      6  C   UNL     1      12.493   1.134  -4.438  0.00  0.00    +0.000 A 
ATOM      7  C   UNL     1      11.406   1.396  -3.586  0.00  0.00    +0.000 A 
ENDROOT
BRANCH   6   8
ATOM      8  N   UNL     1      12.321   1.219  -5.834  0.00  0.00    +0.000 N 
ATOM      9  C   UNL     1      11.116   1.483  -6.482  0.00  0.00    +0.000 A 
ATOM     10  N   UNL     1      10.574   0.526  -7.246  0.00  0.00    +0.000 NA
ATOM     11  C   UNL     1       9.331   0.760  -7.712  0.00  0.00    +0.000 A 
ATOM     12  C   UNL     1       8.636   1.922  -7.482  0.00  0.00    +0.000 A 
ATOM     13  C   UNL     1       9.286   2.870  -6.728  0.00  0.00    +0.000 A 
ATOM     14  N   UNL     1      10.511   2.654  -6.221  0.00  0.00    +0.000 NA
ATOM     15  H   UNL     1      12.992   0.754  -6.422  0.00  0.00    +0.000 HD
BRANCH  13  16
ATOM     16  C   UNL     1       8.697   4.176  -6.443  0.00  0.00    +0.000 A 
ATOM     17  C   UNL     1       9.347   5.352  -6.815  0.00  0.00    +0.000 A 
ATOM     18  N   UNL     1       8.847   6.600  -6.633  0.00  0.00    +0.000 NA
ATOM     19  C   UNL     1       7.646   6.687  -6.024  0.00  0.00    +0.000 A 
ATOM     20  C   UNL     1       6.916   5.588  -5.607  0.00  0.00    +0.000 A 
ATOM     21  C   UNL     1       7.450   4.318  -5.821  0.00  0.00    +0.000 A 
ENDBRANCH  13  16
ENDBRANCH   6   8
BRANCH   1  23
ATOM     22  N   UNL     1       9.165   1.465  -1.622  0.00  0.00    +0.000 N 
ATOM     23  C   UNL     1      10.461   1.914  -1.360  0.00  0.00    +0.000 C 
ATOM     24  O   UNL     1      10.811   2.687  -0.461  0.00  0.00    +0.000 OA
ATOM     25  H   UNL     1       9.046   0.744  -2.326  0.00  0.00    +0.000 HD
BRANCH  22  28
ATOM     26  C   UNL     1       5.784   1.319  -0.039  0.00  0.00    +0.000 A 
ATOM     27  C   UNL     1       6.815   1.111  -0.979  0.00  0.00    +0.000 A 
ATOM     28  C   UNL     1       8.036   1.781  -0.816  0.00  0.00    +0.000 A 
ATOM     29  C   UNL     1       8.142   2.710   0.220  0.00  0.00    +0.000 A 
ATOM     30  C   UNL     1       7.144   2.885   1.181  0.00  0.00    +0.000 A 
ATOM     31  C   UNL     1       5.944   2.198   1.038  0.00  0.00    +0.000 A 
BRANCH  26  35
ATOM     32  C   UNL     1       1.016  -0.114   0.007  0.00  0.00    +0.000 C 
ATOM     33  C   UNL     1       2.495  -0.065   0.000  0.00  0.00    +0.000 A 
ATOM     34  C   UNL     1       3.315   1.043   0.023  0.00  0.00    +0.000 A 
ATOM     35  N   UNL     1       4.596   0.562  -0.085  0.00  0.00    +0.000 N 
ATOM     36  C   UNL     1       4.501  -0.807  -0.085  0.00  0.00    +0.000 A 
ATOM     37  N   UNL     1       3.249  -1.213  -0.046  0.00  0.00    +0.000 NA
ENDBRANCH  26  35
BRANCH  30  38
ATOM     38  C   UNL     1       7.457   3.746   2.374  0.00  0.00    +0.000 C 
ATOM     39  F   UNL     1       8.542   3.296   3.065  0.00  0.00    +0.000 F 
ATOM     40  F   UNL     1       7.732   5.032   2.030  0.00  0.00    +0.000 F 
ATOM     41  F   UNL     1       6.440   3.801   3.274  0.00  0.00    +0.000 F 
ENDBRANCH  30  38
ENDBRANCH  22  28
ENDBRANCH   1  23
TORSDOF 6
