REMARK  Name = Nilutamide
REMARK  5 active torsions:
REMARK  status: ('A' for Active; 'I' for Inactive)
REMARK    1  A    between atoms: C_1  and  C_2
REMARK    2  A    between atoms: C_2  and  C_3
REMARK    3  A    between atoms: N_7  and  C_10
REMARK    4  A    between atoms: C_12  and  C_19
REMARK    5  A    between atoms: C_13  and  N_16
REMARK                            x       y       z     vdW  Elec       q    Type
REMARK                         _______ _______ _______ _____ _____    ______ ____
ROOT
ATOM      1  C   UNL     1       5.113  -1.613   2.261  0.00  0.00    +0.000 A 
ATOM      2  C   UNL     1       5.466  -1.250   3.575  0.00  0.00    +0.000 A 
ATOM      3  C   UNL     1       6.495  -1.909   4.316  0.00  0.00    +0.000 A 
ATOM      4  C   UNL     1       7.070  -3.061   3.762  0.00  0.00    +0.000 A 
ATOM      5  C   UNL     1       6.713  -3.441   2.451  0.00  0.00    +0.000 A 
ATOM      6  C   UNL     1       5.739  -2.733   1.717  0.00  0.00    +0.000 A 
ENDROOT
BRANCH   1  13
ATOM      7  C   UNL     1       0.954   0.041   0.151  0.00  0.00    +0.000 C 
ATOM      8  C   UNL     1       2.474   0.017   0.114  0.00  0.00    +0.000 C 
ATOM      9  C   UNL     1       2.937   0.152  -1.343  0.00  0.00    +0.000 C 
ATOM     10  N   UNL     1       3.085   1.034   0.935  0.00  0.00    +0.000 N 
ATOM     11  C   UNL     1       4.277   0.568   1.461  0.00  0.00    +0.000 C 
ATOM     12  O   UNL     1       5.213   1.305   1.760  0.00  0.00    +0.000 OA
ATOM     13  N   UNL     1       4.224  -0.803   1.503  0.00  0.00    +0.000 N 
ATOM     14  C   UNL     1       3.128  -1.228   0.775  0.00  0.00    +0.000 C 
ATOM     15  O   UNL     1       2.728  -2.376   0.634  0.00  0.00    +0.000 OA
ATOM     16  H   UNL     1       2.879   2.026   0.907  0.00  0.00    +0.000 HD
ENDBRANCH   1  13
BRANCH   3  17
ATOM     17  C   UNL     1       6.962  -1.209   5.574  0.00  0.00    +0.000 C 
ATOM     18  F   UNL     1       7.139   0.124   5.328  0.00  0.00    +0.000 F 
ATOM     19  F   UNL     1       6.050  -1.274   6.580  0.00  0.00    +0.000 F 
ATOM     20  F   UNL     1       8.154  -1.596   6.088  0.00  0.00    +0.000 F 
ENDBRANCH   3  17
BRANCH   4  21
ATOM     21  N   UNL     1       7.984  -3.961   4.507  0.00  0.00    +0.000 N 
ATOM     22  O   UNL     1       8.010  -3.885   5.739  0.00  0.00    +0.000 OA
ATOM     23  O   UNL     1       8.612  -4.806   3.854  0.00  0.00    +0.000 OA
ENDBRANCH   4  21
TORSDOF 3
