REMARK  Name = Nilvadipine
REMARK  12 active torsions:
REMARK  status: ('A' for Active; 'I' for Inactive)
REMARK    1  A    between atoms: C_1  and  O_2
REMARK    2  A    between atoms: O_2  and  C_3
REMARK    3  A    between atoms: C_3  and  C_5
REMARK    4  A    between atoms: C_6  and  C_27
REMARK    5  A    between atoms: C_8  and  C_9
REMARK    6  A    between atoms: C_10  and  C_21
REMARK    7  A    between atoms: C_11  and  C_12
REMARK    8  A    between atoms: C_14  and  N_18
REMARK    9  A    between atoms: C_21  and  O_23
REMARK   10  A    between atoms: O_23  and  C_24
REMARK   11  A    between atoms: C_24  and  C_25
REMARK   12  A    between atoms: C_24  and  C_26
REMARK                            x       y       z     vdW  Elec       q    Type
REMARK                         _______ _______ _______ _____ _____    ______ ____
ROOT
ATOM      1  C   UNL     1       4.539   1.247   0.096  0.00  0.00    +0.000 C 
ATOM      2  C   UNL     1       5.240   0.552  -0.825  0.00  0.00    +0.000 C 
ATOM      3  N   UNL     1       6.611   0.496  -0.806  0.00  0.00    +0.000 N 
ATOM      4  C   UNL     1       7.359   0.931   0.283  0.00  0.00    +0.000 C 
ATOM      5  C   UNL     1       8.802   0.483   0.308  0.00  0.00    +0.000 C 
ATOM      6  C   UNL     1       6.783   1.657   1.284  0.00  0.00    +0.000 C 
ATOM      7  C   UNL     1       5.278   2.015   1.192  0.00  0.00    +0.000 C 
ATOM      8  H   UNL     1       7.095   0.090  -1.604  0.00  0.00    +0.000 HD
ENDROOT
BRANCH   7   9
ATOM      9  C   UNL     1       4.590   1.766   2.524  0.00  0.00    +0.000 A 
ATOM     10  C   UNL     1       4.118   2.846   3.286  0.00  0.00    +0.000 A 
ATOM     11  C   UNL     1       3.742   2.615   4.610  0.00  0.00    +0.000 A 
ATOM     12  C   UNL     1       3.703   1.310   5.126  0.00  0.00    +0.000 A 
ATOM     13  C   UNL     1       4.104   0.235   4.335  0.00  0.00    +0.000 A 
ATOM     14  C   UNL     1       4.556   0.462   3.045  0.00  0.00    +0.000 A 
BRANCH  11  15
ATOM     15  N   UNL     1       3.577   3.754   5.524  0.00  0.00    +0.000 N 
ATOM     16  O   UNL     1       3.730   4.895   5.062  0.00  0.00    +0.000 OA
ATOM     17  O   UNL     1       3.373   3.504   6.720  0.00  0.00    +0.000 OA
ENDBRANCH  11  15
ENDBRANCH   7   9
BRANCH   1  18
ATOM     18  C   UNL     1       3.045   1.321   0.103  0.00  0.00    +0.000 C 
ATOM     19  O   UNL     1       2.439   2.374   0.275  0.00  0.00    +0.000 OA
BRANCH  18  21
ATOM     20  C   UNL     1       1.031   0.085  -0.047  0.00  0.00    +0.000 C 
ATOM     21  O   UNL     1       2.470   0.097  -0.022  0.00  0.00    +0.000 OA
ENDBRANCH  18  21
ENDBRANCH   1  18
BRANCH   6  22
ATOM     22  C   UNL     1       7.609   2.002   2.499  0.00  0.00    +0.000 C 
ATOM     23  O   UNL     1       8.735   1.554   2.689  0.00  0.00    +0.000 OA
BRANCH  22  24
ATOM     24  O   UNL     1       7.008   2.836   3.390  0.00  0.00    +0.000 OA
BRANCH  24  25
ATOM     25  C   UNL     1       7.790   3.126   4.580  0.00  0.00    +0.000 C 
ATOM     26  C   UNL     1       8.978   4.009   4.217  0.00  0.00    +0.000 C 
ATOM     27  C   UNL     1       6.930   3.882   5.587  0.00  0.00    +0.000 C 
ENDBRANCH  24  25
ENDBRANCH  22  24
ENDBRANCH   6  22
BRANCH   2  28
ATOM     28  C   UNL     1       4.460  -0.218  -1.878  0.00  0.00    +0.000 C 
ATOM     29  N   UNL     1       3.813  -0.857  -2.751  0.00  0.00    +0.000 NA
ENDBRANCH   2  28
TORSDOF 8
