REMARK  Name = Nimesulide
REMARK  6 active torsions:
REMARK  status: ('A' for Active; 'I' for Inactive)
REMARK    1  A    between atoms: C_1  and  S_2
REMARK    2  A    between atoms: S_2  and  N_5
REMARK    3  A    between atoms: N_5  and  C_6
REMARK    4  A    between atoms: C_7  and  O_8
REMARK    5  A    between atoms: O_8  and  C_9
REMARK    6  A    between atoms: C_16  and  N_19
REMARK                            x       y       z     vdW  Elec       q    Type
REMARK                         _______ _______ _______ _____ _____    ______ ____
ROOT
ATOM      1  C   UNL     1       4.698  -0.601  -1.679  0.00  0.00    +0.000 A 
ATOM      2  C   UNL     1       5.188  -0.150  -2.929  0.00  0.00    +0.000 A 
ATOM      3  C   UNL     1       6.548  -0.378  -3.272  0.00  0.00    +0.000 A 
ATOM      4  C   UNL     1       7.429  -0.938  -2.333  0.00  0.00    +0.000 A 
ATOM      5  C   UNL     1       6.953  -1.343  -1.088  0.00  0.00    +0.000 A 
ATOM      6  C   UNL     1       5.602  -1.177  -0.778  0.00  0.00    +0.000 A 
ENDROOT
BRANCH   4   7
ATOM      7  N   UNL     1       8.870  -1.058  -2.617  0.00  0.00    +0.000 N 
ATOM      8  O   UNL     1       9.275  -0.681  -3.725  0.00  0.00    +0.000 OA
ATOM      9  O   UNL     1       9.597  -1.511  -1.720  0.00  0.00    +0.000 OA
ENDBRANCH   4   7
BRANCH   1  10
ATOM     10  N   UNL     1       3.297  -0.647  -1.325  0.00  0.00    +0.000 N 
ATOM     11  H   UNL     1       2.633  -0.604  -2.097  0.00  0.00    +0.000 HD
BRANCH  10  13
ATOM     12  C   UNL     1       1.013  -0.000   0.039  0.00  0.00    +0.000 C 
ATOM     13  S   UNL     1       2.796  -0.017   0.167  0.00  0.00    +0.000 S 
ATOM     14  O   UNL     1       3.250   1.345   0.301  0.00  0.00    +0.000 OA
ATOM     15  O   UNL     1       3.133  -0.999   1.184  0.00  0.00    +0.000 OA
ENDBRANCH  10  13
ENDBRANCH   1  10
BRANCH   2  16
ATOM     16  O   UNL     1       4.470   0.496  -3.925  0.00  0.00    +0.000 OA
BRANCH  16  17
ATOM     17  C   UNL     1       3.269   1.105  -3.650  0.00  0.00    +0.000 A 
ATOM     18  C   UNL     1       2.206   0.800  -4.499  0.00  0.00    +0.000 A 
ATOM     19  C   UNL     1       0.932   1.320  -4.248  0.00  0.00    +0.000 A 
ATOM     20  C   UNL     1       0.700   2.083  -3.107  0.00  0.00    +0.000 A 
ATOM     21  C   UNL     1       1.767   2.421  -2.279  0.00  0.00    +0.000 A 
ATOM     22  C   UNL     1       3.061   1.980  -2.583  0.00  0.00    +0.000 A 
ENDBRANCH  16  17
ENDBRANCH   2  16
TORSDOF 5
