REMARK  Name = Nimodipine
REMARK  15 active torsions:
REMARK  status: ('A' for Active; 'I' for Inactive)
REMARK    1  A    between atoms: C_1  and  O_2
REMARK    2  A    between atoms: O_2  and  C_3
REMARK    3  A    between atoms: C_3  and  C_4
REMARK    4  A    between atoms: C_4  and  O_5
REMARK    5  A    between atoms: O_5  and  C_6
REMARK    6  A    between atoms: C_6  and  C_8
REMARK    7  A    between atoms: C_9  and  C_10
REMARK    8  A    between atoms: C_12  and  C_13
REMARK    9  A    between atoms: C_14  and  C_25
REMARK   10  A    between atoms: C_15  and  C_16
REMARK   11  A    between atoms: C_18  and  N_22
REMARK   12  A    between atoms: C_25  and  O_27
REMARK   13  A    between atoms: O_27  and  C_28
REMARK   14  A    between atoms: C_28  and  C_29
REMARK   15  A    between atoms: C_28  and  C_30
REMARK                            x       y       z     vdW  Elec       q    Type
REMARK                         _______ _______ _______ _____ _____    ______ ____
ROOT
ATOM      1  C   UNL     1       6.762   2.622   3.431  0.00  0.00    +0.000 C 
ATOM      2  C   UNL     1       6.184   2.528   4.651  0.00  0.00    +0.000 C 
ATOM      3  C   UNL     1       4.958   1.731   5.003  0.00  0.00    +0.000 C 
ATOM      4  N   UNL     1       6.779   3.168   5.731  0.00  0.00    +0.000 N 
ATOM      5  C   UNL     1       8.101   3.593   5.752  0.00  0.00    +0.000 C 
ATOM      6  C   UNL     1       8.681   3.821   7.129  0.00  0.00    +0.000 C 
ATOM      7  C   UNL     1       8.777   3.758   4.584  0.00  0.00    +0.000 C 
ATOM      8  C   UNL     1       8.030   3.493   3.263  0.00  0.00    +0.000 C 
ATOM      9  H   UNL     1       6.310   3.087   6.631  0.00  0.00    +0.000 HD
ENDROOT
BRANCH   8  10
ATOM     10  C   UNL     1       7.640   4.831   2.620  0.00  0.00    +0.000 A 
ATOM     11  C   UNL     1       8.189   5.192   1.386  0.00  0.00    +0.000 A 
ATOM     12  C   UNL     1       7.961   6.477   0.879  0.00  0.00    +0.000 A 
ATOM     13  C   UNL     1       7.078   7.360   1.515  0.00  0.00    +0.000 A 
ATOM     14  C   UNL     1       6.497   6.992   2.724  0.00  0.00    +0.000 A 
ATOM     15  C   UNL     1       6.791   5.747   3.280  0.00  0.00    +0.000 A 
BRANCH  12  16
ATOM     16  N   UNL     1       8.759   6.948  -0.257  0.00  0.00    +0.000 N 
ATOM     17  O   UNL     1       9.588   6.166  -0.744  0.00  0.00    +0.000 OA
ATOM     18  O   UNL     1       8.591   8.117  -0.632  0.00  0.00    +0.000 OA
ENDBRANCH  12  16
ENDBRANCH   8  10
BRANCH   1  19
ATOM     19  C   UNL     1       6.323   1.846   2.236  0.00  0.00    +0.000 C 
ATOM     20  O   UNL     1       7.127   1.310   1.478  0.00  0.00    +0.000 OA
BRANCH  19  21
ATOM     21  O   UNL     1       4.973   1.808   2.086  0.00  0.00    +0.000 OA
BRANCH  21  22
ATOM     22  C   UNL     1       4.478   0.943   1.038  0.00  0.00    +0.000 C 
BRANCH  22  23
ATOM     23  C   UNL     1       2.944   0.920   1.052  0.00  0.00    +0.000 C 
BRANCH  23  25
ATOM     24  C   UNL     1       1.017   0.095  -0.036  0.00  0.00    +0.000 C 
ATOM     25  O   UNL     1       2.443   0.110  -0.015  0.00  0.00    +0.000 OA
ENDBRANCH  23  25
ENDBRANCH  22  23
ENDBRANCH  21  22
ENDBRANCH  19  21
ENDBRANCH   1  19
BRANCH   7  26
ATOM     26  C   UNL     1      10.198   4.236   4.603  0.00  0.00    +0.000 C 
ATOM     27  O   UNL     1      10.778   4.544   5.639  0.00  0.00    +0.000 OA
BRANCH  26  28
ATOM     28  O   UNL     1      10.797   4.297   3.379  0.00  0.00    +0.000 OA
BRANCH  28  29
ATOM     29  C   UNL     1      12.187   4.744   3.397  0.00  0.00    +0.000 C 
ATOM     30  C   UNL     1      13.096   3.726   4.093  0.00  0.00    +0.000 C 
ATOM     31  C   UNL     1      12.683   4.918   1.960  0.00  0.00    +0.000 C 
ENDBRANCH  28  29
ENDBRANCH  26  28
ENDBRANCH   7  26
TORSDOF 10
