REMARK  Name = Nintedanib
REMARK  11 active torsions:
REMARK  status: ('A' for Active; 'I' for Inactive)
REMARK    1  A    between atoms: C_1  and  O_2
REMARK    2  A    between atoms: O_2  and  C_3
REMARK    3  A    between atoms: C_3  and  C_5
REMARK    4  A    between atoms: C_14  and  N_15
REMARK    5  A    between atoms: C_14  and  C_34
REMARK    6  A    between atoms: N_15  and  C_16
REMARK    7  A    between atoms: C_19  and  N_22
REMARK    8  A    between atoms: N_22  and  C_23
REMARK    9  A    between atoms: C_24  and  C_26
REMARK   10  A    between atoms: C_26  and  N_27
REMARK   11  A    between atoms: N_30  and  C_31
REMARK                            x       y       z     vdW  Elec       q    Type
REMARK                         _______ _______ _______ _____ _____    ______ ____
ROOT
ATOM      1  C   UNL     1       4.598   0.294   1.043  0.00  0.00    +0.000 A 
ATOM      2  C   UNL     1       5.317   0.932   0.010  0.00  0.00    +0.000 A 
ATOM      3  C   UNL     1       6.727   0.980   0.022  0.00  0.00    +0.000 A 
ATOM      4  C   UNL     1       7.404   0.396   1.077  0.00  0.00    +0.000 A 
ATOM      5  C   UNL     1       6.653  -0.306   2.033  0.00  0.00    +0.000 A 
ATOM      6  N   UNL     1       7.461  -0.854   3.007  0.00  0.00    +0.000 N 
ATOM      7  C   UNL     1       8.697  -0.283   2.937  0.00  0.00    +0.000 C 
ATOM      8  O   UNL     1       9.403  -0.163   3.933  0.00  0.00    +0.000 OA
ATOM      9  C   UNL     1       8.816   0.329   1.544  0.00  0.00    +0.000 C 
ATOM     10  C   UNL     1      10.004   0.688   0.977  0.00  0.00    +0.000 C 
ATOM     11  C   UNL     1       5.277  -0.349   2.072  0.00  0.00    +0.000 A 
ATOM     12  H   UNL     1       7.163  -1.312   3.853  0.00  0.00    +0.000 HD
ENDROOT
BRANCH  10  13
ATOM     13  C   UNL     1      10.009   1.593  -0.227  0.00  0.00    +0.000 A 
ATOM     14  C   UNL     1      10.692   1.287  -1.416  0.00  0.00    +0.000 A 
ATOM     15  C   UNL     1      10.774   2.227  -2.461  0.00  0.00    +0.000 A 
ATOM     16  C   UNL     1      10.099   3.444  -2.376  0.00  0.00    +0.000 A 
ATOM     17  C   UNL     1       9.395   3.753  -1.219  0.00  0.00    +0.000 A 
ATOM     18  C   UNL     1       9.382   2.852  -0.147  0.00  0.00    +0.000 A 
ENDBRANCH  10  13
BRANCH   1  19
ATOM     19  C   UNL     1       3.121   0.336   1.128  0.00  0.00    +0.000 C 
ATOM     20  O   UNL     1       2.526   0.527   2.177  0.00  0.00    +0.000 OA
BRANCH  19  22
ATOM     21  C   UNL     1       1.131   0.042  -0.056  0.00  0.00    +0.000 C 
ATOM     22  O   UNL     1       2.564   0.073  -0.079  0.00  0.00    +0.000 OA
ENDBRANCH  19  22
ENDBRANCH   1  19
BRANCH  10  23
ATOM     23  N   UNL     1      11.290   0.374   1.452  0.00  0.00    +0.000 N 
ATOM     24  H   UNL     1      12.070   0.901   1.076  0.00  0.00    +0.000 HD
BRANCH  23  25
ATOM     25  C   UNL     1      11.630  -0.605   2.412  0.00  0.00    +0.000 A 
ATOM     26  C   UNL     1      12.413  -0.294   3.525  0.00  0.00    +0.000 A 
ATOM     27  C   UNL     1      12.538  -1.204   4.601  0.00  0.00    +0.000 A 
ATOM     28  C   UNL     1      11.775  -2.386   4.675  0.00  0.00    +0.000 A 
ATOM     29  C   UNL     1      11.012  -2.674   3.540  0.00  0.00    +0.000 A 
ATOM     30  C   UNL     1      11.000  -1.848   2.409  0.00  0.00    +0.000 A 
BRANCH  28  31
ATOM     31  N   UNL     1      11.742  -3.240   5.854  0.00  0.00    +0.000 N 
ATOM     32  C   UNL     1      12.627  -2.916   6.982  0.00  0.00    +0.000 C 
ATOM     33  C   UNL     1      10.856  -4.348   5.952  0.00  0.00    +0.000 C 
ATOM     34  O   UNL     1      10.015  -4.691   5.112  0.00  0.00    +0.000 OA
BRANCH  33  35
ATOM     35  C   UNL     1      10.907  -5.234   7.205  0.00  0.00    +0.000 C 
BRANCH  35  36
ATOM     36  N   UNL     1      10.675  -4.468   8.426  0.00  0.00    +0.000 NA
ATOM     37  C   UNL     1      10.746  -5.314   9.619  0.00  0.00    +0.000 C 
ATOM     38  C   UNL     1      10.625  -4.446  10.889  0.00  0.00    +0.000 C 
ATOM     39  N   UNL     1       9.425  -3.579  10.931  0.00  0.00    +0.000 NA
ATOM     40  C   UNL     1       8.230  -4.386  11.173  0.00  0.00    +0.000 C 
ATOM     41  C   UNL     1       9.279  -2.848   9.651  0.00  0.00    +0.000 C 
ATOM     42  C   UNL     1       9.390  -3.747   8.403  0.00  0.00    +0.000 C 
ENDBRANCH  35  36
ENDBRANCH  33  35
ENDBRANCH  28  31
ENDBRANCH  23  25
ENDBRANCH  10  23
TORSDOF 8
