REMARK  Name = Niraparib
REMARK  3 active torsions:
REMARK  status: ('A' for Active; 'I' for Inactive)
REMARK    1  A    between atoms: C_2  and  C_4
REMARK    2  A    between atoms: N_10  and  C_13
REMARK    3  A    between atoms: C_16  and  C_19
REMARK                            x       y       z     vdW  Elec       q    Type
REMARK                         _______ _______ _______ _____ _____    ______ ____
ROOT
ATOM      1  C   UNL     1       3.190  -1.238   0.314  0.00  0.00    +0.000 A 
ATOM      2  C   UNL     1       2.837  -2.489  -0.260  0.00  0.00    +0.000 A 
ATOM      3  C   UNL     1       3.523  -3.703   0.033  0.00  0.00    +0.000 A 
ATOM      4  C   UNL     1       4.635  -3.780   0.896  0.00  0.00    +0.000 A 
ATOM      5  C   UNL     1       4.968  -2.535   1.429  0.00  0.00    +0.000 A 
ATOM      6  C   UNL     1       6.008  -2.292   2.282  0.00  0.00    +0.000 A 
ATOM      7  N   UNL     1       5.906  -0.957   2.606  0.00  0.00    +0.000 N 
ATOM      8  N   UNL     1       4.850  -0.349   2.007  0.00  0.00    +0.000 NA
ATOM      9  C   UNL     1       4.289  -1.277   1.206  0.00  0.00    +0.000 A 
ENDROOT
BRANCH   7  10
ATOM     10  C   UNL     1       6.758  -0.239   3.477  0.00  0.00    +0.000 A 
ATOM     11  C   UNL     1       6.215   0.568   4.485  0.00  0.00    +0.000 A 
ATOM     12  C   UNL     1       7.047   1.368   5.281  0.00  0.00    +0.000 A 
ATOM     13  C   UNL     1       8.434   1.340   5.110  0.00  0.00    +0.000 A 
ATOM     14  C   UNL     1       8.951   0.429   4.168  0.00  0.00    +0.000 A 
ATOM     15  C   UNL     1       8.136  -0.330   3.331  0.00  0.00    +0.000 A 
BRANCH  13  16
ATOM     16  C   UNL     1       9.331   2.194   6.011  0.00  0.00    +0.000 C 
ATOM     17  C   UNL     1      10.239   3.209   5.282  0.00  0.00    +0.000 C 
ATOM     18  C   UNL     1      11.394   2.531   4.551  0.00  0.00    +0.000 C 
ATOM     19  C   UNL     1      12.123   1.532   5.460  0.00  0.00    +0.000 C 
ATOM     20  N   UNL     1      11.226   0.588   6.123  0.00  0.00    +0.000 NA
ATOM     21  C   UNL     1      10.188   1.272   6.900  0.00  0.00    +0.000 C 
ATOM     22  H   UNL     1      11.729  -0.085   6.694  0.00  0.00    +0.000 HD
ENDBRANCH  13  16
ENDBRANCH   7  10
BRANCH   1  24
ATOM     23  N   UNL     1       1.105  -0.104  -0.096  0.00  0.00    +0.000 N 
ATOM     24  C   UNL     1       2.469  -0.012  -0.038  0.00  0.00    +0.000 C 
ATOM     25  O   UNL     1       3.045   1.037  -0.315  0.00  0.00    +0.000 OA
ATOM     26  H   UNL     1       0.597   0.752  -0.282  0.00  0.00    +0.000 HD
ATOM     27  H   UNL     1       0.585  -0.917   0.203  0.00  0.00    +0.000 HD
ENDBRANCH   1  24
TORSDOF 3
