REMARK  Name = Nirmatrelvir
REMARK  14 active torsions:
REMARK  status: ('A' for Active; 'I' for Inactive)
REMARK    1  A    between atoms: C_5  and  C_6
REMARK    2  A    between atoms: N_8  and  C_9
REMARK    3  A    between atoms: C_9  and  C_10
REMARK    4  A    between atoms: C_9  and  C_18
REMARK    5  A    between atoms: C_10  and  C_11
REMARK    6  A    between atoms: C_22  and  C_23
REMARK    7  A    between atoms: C_22  and  C_24
REMARK    8  A    between atoms: C_25  and  C_27
REMARK    9  A    between atoms: C_27  and  N_28
REMARK   10  A    between atoms: C_27  and  C_35
REMARK   11  A    between atoms: C_29  and  C_31
REMARK   12  A    between atoms: C_35  and  C_36
REMARK   13  A    between atoms: C_35  and  C_37
REMARK   14  A    between atoms: C_35  and  C_38
REMARK                            x       y       z     vdW  Elec       q    Type
REMARK                         _______ _______ _______ _____ _____    ______ ____
ROOT
ATOM      1  C   UNL     1       8.619  -5.595   2.934  0.00  0.00    +0.000 C 
ATOM      2  C   UNL     1       7.892  -6.292   1.855  0.00  0.00    +0.000 C 
ATOM      3  N   UNL     1       8.246  -5.760   0.562  0.00  0.00    +0.000 N 
ATOM      4  C   UNL     1       8.424  -4.341   0.727  0.00  0.00    +0.000 C 
ATOM      5  C   UNL     1       9.144  -4.391   2.268  0.00  0.00    +0.000 C 
ATOM      6  C   UNL     1       8.437  -4.196   3.553  0.00  0.00    +0.000 C 
ATOM      7  C   UNL     1       7.239  -3.323   3.477  0.00  0.00    +0.000 C 
ATOM      8  C   UNL     1       9.305  -3.869   4.750  0.00  0.00    +0.000 C 
ATOM      9  C   UNL     1       8.235  -6.413  -0.659  0.00  0.00    +0.000 C 
ATOM     10  O   UNL     1       8.632  -5.837  -1.675  0.00  0.00    +0.000 OA
ENDROOT
BRANCH   4  11
ATOM     11  C   UNL     1       9.411  -3.719  -0.183  0.00  0.00    +0.000 C 
ATOM     12  O   UNL     1      10.358  -3.568   0.567  0.00  0.00    +0.000 OA
ATOM     13  N   UNL     1       9.347  -3.490  -1.561  0.00  0.00    +0.000 N 
ATOM     14  H   UNL     1       8.480  -3.858  -1.934  0.00  0.00    +0.000 HD
BRANCH  13  15
ATOM     15  C   UNL     1      10.468  -3.276  -2.767  0.00  0.00    +0.000 C 
BRANCH  15  16
ATOM     16  C   UNL     1       9.726  -2.947  -4.052  0.00  0.00    +0.000 C 
ATOM     17  N   UNL     1       9.110  -2.675  -5.118  0.00  0.00    +0.000 NA
ENDBRANCH  15  16
BRANCH  15  18
ATOM     18  C   UNL     1      11.562  -4.348  -3.111  0.00  0.00    +0.000 C 
BRANCH  18  19
ATOM     19  C   UNL     1      12.602  -4.696  -2.022  0.00  0.00    +0.000 C 
ATOM     20  C   UNL     1      11.834  -4.600  -0.770  0.00  0.00    +0.000 C 
ATOM     21  C   UNL     1      12.002  -2.957  -0.460  0.00  0.00    +0.000 C 
ATOM     22  N   UNL     1      13.278  -2.670  -0.867  0.00  0.00    +0.000 N 
ATOM     23  C   UNL     1      13.735  -3.759  -1.570  0.00  0.00    +0.000 C 
ATOM     24  O   UNL     1      14.925  -4.005  -1.650  0.00  0.00    +0.000 OA
ATOM     25  H   UNL     1      13.847  -2.212  -0.168  0.00  0.00    +0.000 HD
ENDBRANCH  18  19
ENDBRANCH  15  18
ENDBRANCH  13  15
ENDBRANCH   4  11
BRANCH   9  26
ATOM     26  C   UNL     1       7.668  -7.866  -0.796  0.00  0.00    +0.000 C 
BRANCH  26  27
ATOM     27  N   UNL     1       6.212  -7.732  -0.516  0.00  0.00    +0.000 N 
ATOM     28  C   UNL     1       5.638  -7.744   0.735  0.00  0.00    +0.000 C 
ATOM     29  O   UNL     1       6.264  -8.176   1.734  0.00  0.00    +0.000 OA
ATOM     30  H   UNL     1       5.580  -7.978  -1.269  0.00  0.00    +0.000 HD
BRANCH  28  31
ATOM     31  C   UNL     1       4.188  -7.298   0.912  0.00  0.00    +0.000 C 
ATOM     32  F   UNL     1       3.740  -6.448  -0.052  0.00  0.00    +0.000 F 
ATOM     33  F   UNL     1       3.378  -8.386   0.893  0.00  0.00    +0.000 F 
ATOM     34  F   UNL     1       3.984  -6.668   2.104  0.00  0.00    +0.000 F 
ENDBRANCH  28  31
ENDBRANCH  26  27
BRANCH  26  35
ATOM     35  C   UNL     1       7.914  -8.486  -2.251  0.00  0.00    +0.000 C 
ATOM     36  C   UNL     1       7.239  -7.651  -3.368  0.00  0.00    +0.000 C 
ATOM     37  C   UNL     1       9.421  -8.641  -2.591  0.00  0.00    +0.000 C 
ATOM     38  C   UNL     1       7.312  -9.911  -2.324  0.00  0.00    +0.000 C 
ENDBRANCH  26  35
ENDBRANCH   9  26
TORSDOF 9
