REMARK  Name = Nisoldipine
REMARK  13 active torsions:
REMARK  status: ('A' for Active; 'I' for Inactive)
REMARK    1  A    between atoms: C_1  and  O_2
REMARK    2  A    between atoms: O_2  and  C_3
REMARK    3  A    between atoms: C_3  and  C_5
REMARK    4  A    between atoms: C_6  and  C_7
REMARK    5  A    between atoms: C_9  and  C_10
REMARK    6  A    between atoms: C_11  and  C_22
REMARK    7  A    between atoms: C_12  and  C_13
REMARK    8  A    between atoms: C_18  and  N_19
REMARK    9  A    between atoms: C_22  and  O_24
REMARK   10  A    between atoms: O_24  and  C_25
REMARK   11  A    between atoms: C_25  and  C_26
REMARK   12  A    between atoms: C_26  and  C_27
REMARK   13  A    between atoms: C_26  and  C_28
REMARK                            x       y       z     vdW  Elec       q    Type
REMARK                         _______ _______ _______ _____ _____    ______ ____
ROOT
ATOM      1  C   UNL     1       4.474  -0.406   1.308  0.00  0.00    +0.000 C 
ATOM      2  C   UNL     1       5.107   0.778   1.127  0.00  0.00    +0.000 C 
ATOM      3  C   UNL     1       4.520   1.990   0.437  0.00  0.00    +0.000 C 
ATOM      4  N   UNL     1       6.485   0.873   1.357  0.00  0.00    +0.000 N 
ATOM      5  C   UNL     1       7.281  -0.166   1.834  0.00  0.00    +0.000 C 
ATOM      6  C   UNL     1       8.751   0.176   1.935  0.00  0.00    +0.000 C 
ATOM      7  C   UNL     1       6.743  -1.382   2.106  0.00  0.00    +0.000 C 
ATOM      8  C   UNL     1       5.300  -1.670   1.632  0.00  0.00    +0.000 C 
ATOM      9  H   UNL     1       6.945   1.378   0.591  0.00  0.00    +0.000 HD
ENDROOT
BRANCH   8  10
ATOM     10  C   UNL     1       5.343  -2.653   0.414  0.00  0.00    +0.000 A 
ATOM     11  C   UNL     1       4.804  -3.951   0.635  0.00  0.00    +0.000 A 
ATOM     12  C   UNL     1       4.952  -4.989  -0.303  0.00  0.00    +0.000 A 
ATOM     13  C   UNL     1       5.544  -4.751  -1.530  0.00  0.00    +0.000 A 
ATOM     14  C   UNL     1       6.038  -3.493  -1.803  0.00  0.00    +0.000 A 
ATOM     15  C   UNL     1       5.952  -2.442  -0.866  0.00  0.00    +0.000 A 
BRANCH  15  16
ATOM     16  N   UNL     1       6.501  -1.190  -1.429  0.00  0.00    +0.000 N 
ATOM     17  O   UNL     1       7.171  -1.246  -2.463  0.00  0.00    +0.000 OA
ATOM     18  O   UNL     1       6.211  -0.113  -0.931  0.00  0.00    +0.000 OA
ENDBRANCH  15  16
ENDBRANCH   8  10
BRANCH   1  19
ATOM     19  C   UNL     1       2.996  -0.555   1.237  0.00  0.00    +0.000 C 
ATOM     20  O   UNL     1       2.362  -1.072   2.146  0.00  0.00    +0.000 OA
BRANCH  19  22
ATOM     21  C   UNL     1       1.010  -0.018   0.085  0.00  0.00    +0.000 C 
ATOM     22  O   UNL     1       2.449  -0.066   0.091  0.00  0.00    +0.000 OA
ENDBRANCH  19  22
ENDBRANCH   1  19
BRANCH   7  23
ATOM     23  C   UNL     1       7.560  -2.389   2.867  0.00  0.00    +0.000 C 
ATOM     24  O   UNL     1       8.733  -2.219   3.176  0.00  0.00    +0.000 OA
BRANCH  23  25
ATOM     25  O   UNL     1       6.858  -3.491   3.255  0.00  0.00    +0.000 OA
BRANCH  25  26
ATOM     26  C   UNL     1       7.633  -4.407   4.077  0.00  0.00    +0.000 C 
BRANCH  26  27
ATOM     27  C   UNL     1       6.802  -5.648   4.443  0.00  0.00    +0.000 C 
ATOM     28  C   UNL     1       6.365  -6.387   3.183  0.00  0.00    +0.000 C 
ATOM     29  C   UNL     1       7.588  -6.608   5.341  0.00  0.00    +0.000 C 
ENDBRANCH  26  27
ENDBRANCH  25  26
ENDBRANCH  23  25
ENDBRANCH   7  23
TORSDOF 8
