REMARK  Name = Nitazoxanide
REMARK  5 active torsions:
REMARK  status: ('A' for Active; 'I' for Inactive)
REMARK    1  A    between atoms: C_1  and  C_2
REMARK    2  A    between atoms: C_2  and  O_4
REMARK    3  A    between atoms: O_4  and  C_5
REMARK    4  A    between atoms: C_10  and  C_11
REMARK    5  A    between atoms: C_17  and  N_19
REMARK                            x       y       z     vdW  Elec       q    Type
REMARK                         _______ _______ _______ _____ _____    ______ ____
ROOT
ATOM      1  C   UNL     1       4.490   1.109  -1.679  0.00  0.00    +0.000 C 
ATOM      2  O   UNL     1       5.231   1.152  -2.663  0.00  0.00    +0.000 OA
ATOM      3  N   UNL     1       3.128   1.329  -1.750  0.00  0.00    +0.000 N 
ATOM      4  C   UNL     1       2.421   1.124  -2.912  0.00  0.00    +0.000 A 
ATOM      5  N   UNL     1       2.766   0.433  -3.971  0.00  0.00    +0.000 NA
ATOM      6  C   UNL     1       1.792   0.558  -4.946  0.00  0.00    +0.000 A 
ATOM      7  C   UNL     1       0.720   1.338  -4.587  0.00  0.00    +0.000 A 
ATOM      8  S   UNL     1       0.856   1.832  -2.963  0.00  0.00    +0.000 S 
ATOM      9  H   UNL     1       2.617   1.633  -0.940  0.00  0.00    +0.000 HD
ENDROOT
BRANCH   1  15
ATOM     10  C   UNL     1       4.468   0.586   0.881  0.00  0.00    +0.000 A 
ATOM     11  C   UNL     1       5.192   0.455   2.086  0.00  0.00    +0.000 A 
ATOM     12  C   UNL     1       6.577   0.651   2.112  0.00  0.00    +0.000 A 
ATOM     13  C   UNL     1       7.253   0.914   0.927  0.00  0.00    +0.000 A 
ATOM     14  C   UNL     1       6.534   1.050  -0.268  0.00  0.00    +0.000 A 
ATOM     15  C   UNL     1       5.126   0.920  -0.319  0.00  0.00    +0.000 A 
BRANCH  10  16
ATOM     16  O   UNL     1       3.062   0.472   0.995  0.00  0.00    +0.000 OA
BRANCH  16  18
ATOM     17  C   UNL     1       0.956  -0.183   0.117  0.00  0.00    +0.000 C 
ATOM     18  C   UNL     1       2.432  -0.474   0.188  0.00  0.00    +0.000 C 
ATOM     19  O   UNL     1       2.998  -1.328  -0.488  0.00  0.00    +0.000 OA
ENDBRANCH  16  18
ENDBRANCH  10  16
ENDBRANCH   1  15
BRANCH   7  20
ATOM     20  N   UNL     1      -0.362   1.734  -5.432  0.00  0.00    +0.000 N 
ATOM     21  O   UNL     1      -1.249   2.451  -4.952  0.00  0.00    +0.000 OA
ATOM     22  O   UNL     1      -0.319   1.335  -6.604  0.00  0.00    +0.000 OA
ENDBRANCH   7  20
TORSDOF 4
