REMARK  Name = Nitisinone
REMARK  4 active torsions:
REMARK  status: ('A' for Active; 'I' for Inactive)
REMARK    1  A    between atoms: N_2  and  C_4
REMARK    2  A    between atoms: C_5  and  C_14
REMARK    3  A    between atoms: C_8  and  C_10
REMARK    4  A    between atoms: C_14  and  C_16
REMARK                            x       y       z     vdW  Elec       q    Type
REMARK                         _______ _______ _______ _____ _____    ______ ____
ROOT
ATOM      1  C   UNL     1       2.906   1.561  -0.415  0.00  0.00    +0.000 A 
ATOM      2  C   UNL     1       3.854   0.916  -1.606  0.00  0.00    +0.000 A 
ATOM      3  C   UNL     1       4.598   1.796  -2.391  0.00  0.00    +0.000 A 
ATOM      4  C   UNL     1       4.234   3.128  -2.344  0.00  0.00    +0.000 A 
ATOM      5  C   UNL     1       3.152   3.579  -1.537  0.00  0.00    +0.000 A 
ATOM      6  C   UNL     1       2.475   2.807  -0.623  0.00  0.00    +0.000 A 
ENDROOT
BRANCH   5   7
ATOM      7  C   UNL     1       2.726   4.999  -1.464  0.00  0.00    +0.000 C 
ATOM      8  F   UNL     1       3.725   5.761  -0.971  0.00  0.00    +0.000 F 
ATOM      9  F   UNL     1       2.346   5.477  -2.663  0.00  0.00    +0.000 F 
ATOM     10  F   UNL     1       1.666   5.169  -0.622  0.00  0.00    +0.000 F 
ENDBRANCH   5   7
BRANCH   1  12
ATOM     11  O   UNL     1       0.721   1.462   0.984  0.00  0.00    +0.000 OA
ATOM     12  N   UNL     1       1.901   1.067   1.009  0.00  0.00    +0.000 N 
ATOM     13  O   UNL     1       2.233   0.248   1.887  0.00  0.00    +0.000 OA
ENDBRANCH   1  12
BRANCH   2  14
ATOM     14  C   UNL     1       4.367  -0.716  -2.149  0.00  0.00    +0.000 C 
ATOM     15  O   UNL     1       5.288  -0.840  -2.964  0.00  0.00    +0.000 OA
BRANCH  14  16
ATOM     16  C   UNL     1       3.764  -2.096  -1.582  0.00  0.00    +0.000 C 
ATOM     17  C   UNL     1       3.977  -1.963  -0.118  0.00  0.00    +0.000 C 
ATOM     18  O   UNL     1       4.613  -2.648   0.709  0.00  0.00    +0.000 OA
ATOM     19  C   UNL     1       3.581  -0.657   0.210  0.00  0.00    +0.000 C 
ATOM     20  C   UNL     1       1.906  -0.625  -0.621  0.00  0.00    +0.000 C 
ATOM     21  C   UNL     1       1.641  -0.896  -2.092  0.00  0.00    +0.000 C 
ATOM     22  C   UNL     1       2.307  -2.194  -2.030  0.00  0.00    +0.000 C 
ATOM     23  O   UNL     1       1.629  -3.213  -2.070  0.00  0.00    +0.000 OA
ENDBRANCH  14  16
ENDBRANCH   2  14
TORSDOF 4
