REMARK  Name = Nitroprusside
REMARK  6 active torsions:
REMARK  status: ('A' for Active; 'I' for Inactive)
REMARK    1  A    between atoms: N_2  and  FE_3
REMARK    2  A    between atoms: FE_3  and  C_4
REMARK    3  A    between atoms: FE_3  and  C_6
REMARK    4  A    between atoms: FE_3  and  C_8
REMARK    5  A    between atoms: FE_3  and  C_10
REMARK    6  A    between atoms: FE_3  and  C_12
REMARK                            x       y       z     vdW  Elec       q    Type
REMARK                         _______ _______ _______ _____ _____    ______ ____
ROOT
ATOM      1 FE   UNL     1       3.215  -0.847  -1.638  0.00  0.00    +0.000 Fe
ENDROOT
BRANCH   1   3
ATOM      2  O   UNL     1       0.974  -0.077  -0.058  0.00  0.00    +0.000 OA
ATOM      3  N   UNL     1       2.200  -0.077  -0.058  0.00  0.00    +0.000 NA
ENDBRANCH   1   3
BRANCH   1   4
ATOM      4  C   UNL     1       3.215  -2.717  -0.728  0.00  0.00    +0.000 C 
ATOM      5  N   UNL     1       3.215  -3.851  -0.176  0.00  0.00    +0.000 NA
ENDBRANCH   1   4
BRANCH   1   6
ATOM      6  C   UNL     1       1.413  -1.302  -2.573  0.00  0.00    +0.000 C 
ATOM      7  N   UNL     1       0.321  -1.578  -3.140  0.00  0.00    +0.000 NA
ENDBRANCH   1   6
BRANCH   1   8
ATOM      8  C   UNL     1       4.255  -1.635  -3.258  0.00  0.00    +0.000 C 
ATOM      9  N   UNL     1       4.885  -2.113  -4.240  0.00  0.00    +0.000 NA
ENDBRANCH   1   8
BRANCH   1  10
ATOM     10  C   UNL     1       3.215   1.023  -2.549  0.00  0.00    +0.000 C 
ATOM     11  N   UNL     1       3.215   2.157  -3.101  0.00  0.00    +0.000 NA
ENDBRANCH   1  10
BRANCH   1  12
ATOM     12  C   UNL     1       5.016  -0.392  -0.703  0.00  0.00    +0.000 C 
ATOM     13  N   UNL     1       6.108  -0.116  -0.136  0.00  0.00    +0.000 NA
ENDBRANCH   1  12
TORSDOF 6
