REMARK  Name = Nitroglycerin
REMARK  8 active torsions:
REMARK  status: ('A' for Active; 'I' for Inactive)
REMARK    1  A    between atoms: N_2  and  O_4
REMARK    2  A    between atoms: O_4  and  C_5
REMARK    3  A    between atoms: C_5  and  C_6
REMARK    4  A    between atoms: C_6  and  C_7
REMARK    5  A    between atoms: C_6  and  O_12
REMARK    6  A    between atoms: C_7  and  O_8
REMARK    7  A    between atoms: O_8  and  N_9
REMARK    8  A    between atoms: O_12  and  N_13
REMARK                            x       y       z     vdW  Elec       q    Type
REMARK                         _______ _______ _______ _____ _____    ______ ____
ROOT
ATOM      1  C   UNL     1       4.979   1.973   1.831  0.00  0.00    +0.000 C 
ENDROOT
BRANCH   1   2
ATOM      2  C   UNL     1       4.436   0.893   0.845  0.00  0.00    +0.000 C 
BRANCH   2   3
ATOM      3  O   UNL     1       3.013   0.973   0.799  0.00  0.00    +0.000 OA
BRANCH   3   5
ATOM      4  O   UNL     1       1.166  -0.004   0.112  0.00  0.00    +0.000 OA
ATOM      5  N   UNL     1       2.393  -0.052   0.051  0.00  0.00    +0.000 N 
ATOM      6  O   UNL     1       3.131  -0.830  -0.551  0.00  0.00    +0.000 OA
ENDBRANCH   3   5
ENDBRANCH   2   3
ENDBRANCH   1   2
BRANCH   1   7
ATOM      7  C   UNL     1       4.415   1.713   3.250  0.00  0.00    +0.000 C 
BRANCH   7   8
ATOM      8  O   UNL     1       2.995   1.775   3.207  0.00  0.00    +0.000 OA
BRANCH   8   9
ATOM      9  N   UNL     1       2.382   1.520   4.450  0.00  0.00    +0.000 N 
ATOM     10  O   UNL     1       3.128   1.318   5.410  0.00  0.00    +0.000 OA
ATOM     11  O   UNL     1       1.158   1.527   4.381  0.00  0.00    +0.000 OA
ENDBRANCH   8   9
ENDBRANCH   7   8
ENDBRANCH   1   7
BRANCH   1  12
ATOM     12  O   UNL     1       6.411   1.899   1.799  0.00  0.00    +0.000 OA
BRANCH  12  13
ATOM     13  N   UNL     1       7.081   2.936   2.506  0.00  0.00    +0.000 N 
ATOM     14  O   UNL     1       6.381   3.784   3.062  0.00  0.00    +0.000 OA
ATOM     15  O   UNL     1       8.301   2.823   2.475  0.00  0.00    +0.000 OA
ENDBRANCH  12  13
ENDBRANCH   1  12
TORSDOF 8
