REMARK  Name = Nitrofural
REMARK  3 active torsions:
REMARK  status: ('A' for Active; 'I' for Inactive)
REMARK    1  A    between atoms: N_4  and  N_5
REMARK    2  A    between atoms: C_6  and  C_7
REMARK    3  A    between atoms: C_10  and  N_12
REMARK                            x       y       z     vdW  Elec       q    Type
REMARK                         _______ _______ _______ _____ _____    ______ ____
ROOT
ATOM      1  N   UNL     1       4.683   0.937   0.920  0.00  0.00    +0.000 NA
ATOM      2  C   UNL     1       5.334   1.601   1.829  0.00  0.00    +0.000 C 
ENDROOT
BRANCH   1   6
ATOM      3  N   UNL     1       1.270   0.159   0.103  0.00  0.00    +0.000 N 
ATOM      4  C   UNL     1       2.630   0.103   0.033  0.00  0.00    +0.000 C 
ATOM      5  O   UNL     1       3.149  -0.634  -0.806  0.00  0.00    +0.000 OA
ATOM      6  N   UNL     1       3.302   0.904   0.941  0.00  0.00    +0.000 N 
ATOM      7  H   UNL     1       0.771  -0.428  -0.557  0.00  0.00    +0.000 HD
ATOM      8  H   UNL     1       0.727   0.721   0.736  0.00  0.00    +0.000 HD
ATOM      9  H   UNL     1       2.784   1.467   1.602  0.00  0.00    +0.000 HD
ENDBRANCH   1   6
BRANCH   2  10
ATOM     10  C   UNL     1       6.789   1.653   1.763  0.00  0.00    +0.000 A 
ATOM     11  C   UNL     1       7.609   1.713   0.647  0.00  0.00    +0.000 A 
ATOM     12  C   UNL     1       8.949   1.703   1.089  0.00  0.00    +0.000 A 
ATOM     13  C   UNL     1       8.885   1.629   2.459  0.00  0.00    +0.000 A 
ATOM     14  O   UNL     1       7.582   1.635   2.904  0.00  0.00    +0.000 OA
BRANCH  13  15
ATOM     15  N   UNL     1       9.962   1.550   3.408  0.00  0.00    +0.000 N 
ATOM     16  O   UNL     1       9.686   1.481   4.611  0.00  0.00    +0.000 OA
ATOM     17  O   UNL     1      11.107   1.558   2.930  0.00  0.00    +0.000 OA
ENDBRANCH  13  15
ENDBRANCH   2  10
TORSDOF 3
