REMARK  Name = Nitrofurantoin
REMARK  3 active torsions:
REMARK  status: ('A' for Active; 'I' for Inactive)
REMARK    1  A    between atoms: N_2  and  C_4
REMARK    2  A    between atoms: C_7  and  C_9
REMARK    3  A    between atoms: N_10  and  N_11
REMARK                            x       y       z     vdW  Elec       q    Type
REMARK                         _______ _______ _______ _____ _____    ______ ____
ROOT
ATOM      1  C   UNL     1       5.697   0.250   3.724  0.00  0.00    +0.000 C 
ATOM      2  N   UNL     1       6.089  -0.434   4.764  0.00  0.00    +0.000 NA
ENDROOT
BRANCH   2   3
ATOM      3  N   UNL     1       7.140   0.040   5.510  0.00  0.00    +0.000 N 
ATOM      4  C   UNL     1       8.075  -0.864   6.146  0.00  0.00    +0.000 C 
ATOM      5  C   UNL     1       8.983   0.130   6.846  0.00  0.00    +0.000 C 
ATOM      6  O   UNL     1       9.972  -0.147   7.507  0.00  0.00    +0.000 OA
ATOM      7  N   UNL     1       8.523   1.389   6.624  0.00  0.00    +0.000 N 
ATOM      8  C   UNL     1       7.391   1.371   5.869  0.00  0.00    +0.000 C 
ATOM      9  O   UNL     1       6.734   2.362   5.576  0.00  0.00    +0.000 OA
ATOM     10  H   UNL     1       8.949   2.223   6.992  0.00  0.00    +0.000 HD
ENDBRANCH   2   3
BRANCH   1  14
ATOM     11  C   UNL     1       3.069  -0.359   1.340  0.00  0.00    +0.000 A 
ATOM     12  C   UNL     1       2.742  -1.360   2.217  0.00  0.00    +0.000 A 
ATOM     13  C   UNL     1       3.705  -1.285   3.244  0.00  0.00    +0.000 A 
ATOM     14  C   UNL     1       4.557  -0.230   2.958  0.00  0.00    +0.000 A 
ATOM     15  O   UNL     1       4.170   0.350   1.756  0.00  0.00    +0.000 OA
BRANCH  11  17
ATOM     16  O   UNL     1       1.170  -0.042   0.144  0.00  0.00    +0.000 OA
ATOM     17  N   UNL     1       2.409   0.016   0.126  0.00  0.00    +0.000 N 
ATOM     18  O   UNL     1       3.109   0.281  -0.857  0.00  0.00    +0.000 OA
ENDBRANCH  11  17
ENDBRANCH   1  14
TORSDOF 3
