REMARK  Name = Nitrendipine
REMARK  11 active torsions:
REMARK  status: ('A' for Active; 'I' for Inactive)
REMARK    1  A    between atoms: C_1  and  C_2
REMARK    2  A    between atoms: C_2  and  O_3
REMARK    3  A    between atoms: O_3  and  C_4
REMARK    4  A    between atoms: C_4  and  C_6
REMARK    5  A    between atoms: C_7  and  C_8
REMARK    6  A    between atoms: C_10  and  C_11
REMARK    7  A    between atoms: C_12  and  C_23
REMARK    8  A    between atoms: C_13  and  C_14
REMARK    9  A    between atoms: C_16  and  N_20
REMARK   10  A    between atoms: C_23  and  O_25
REMARK   11  A    between atoms: O_25  and  C_26
REMARK                            x       y       z     vdW  Elec       q    Type
REMARK                         _______ _______ _______ _____ _____    ______ ____
ROOT
ATOM      1  C   UNL     1       4.861   2.290   1.758  0.00  0.00    +0.000 C 
ATOM      2  C   UNL     1       4.282   2.573   2.948  0.00  0.00    +0.000 C 
ATOM      3  C   UNL     1       3.063   1.909   3.528  0.00  0.00    +0.000 C 
ATOM      4  N   UNL     1       4.867   3.525   3.774  0.00  0.00    +0.000 N 
ATOM      5  C   UNL     1       6.184   3.952   3.661  0.00  0.00    +0.000 C 
ATOM      6  C   UNL     1       6.758   4.606   4.895  0.00  0.00    +0.000 C 
ATOM      7  C   UNL     1       6.863   3.753   2.501  0.00  0.00    +0.000 C 
ATOM      8  C   UNL     1       6.120   3.080   1.328  0.00  0.00    +0.000 C 
ATOM      9  H   UNL     1       4.394   3.723   4.653  0.00  0.00    +0.000 HD
ENDROOT
BRANCH   8  10
ATOM     10  C   UNL     1       5.706   4.138   0.295  0.00  0.00    +0.000 A 
ATOM     11  C   UNL     1       6.209   4.066  -1.007  0.00  0.00    +0.000 A 
ATOM     12  C   UNL     1       5.921   5.091  -1.917  0.00  0.00    +0.000 A 
ATOM     13  C   UNL     1       5.026   6.119  -1.590  0.00  0.00    +0.000 A 
ATOM     14  C   UNL     1       4.498   6.179  -0.304  0.00  0.00    +0.000 A 
ATOM     15  C   UNL     1       4.852   5.210   0.635  0.00  0.00    +0.000 A 
BRANCH  12  16
ATOM     16  N   UNL     1       6.662   5.155  -3.180  0.00  0.00    +0.000 N 
ATOM     17  O   UNL     1       7.503   4.272  -3.401  0.00  0.00    +0.000 OA
ATOM     18  O   UNL     1       6.437   6.115  -3.931  0.00  0.00    +0.000 OA
ENDBRANCH  12  16
ENDBRANCH   8  10
BRANCH   1  19
ATOM     19  C   UNL     1       4.422   1.185   0.858  0.00  0.00    +0.000 C 
ATOM     20  O   UNL     1       5.225   0.442   0.301  0.00  0.00    +0.000 OA
BRANCH  19  21
ATOM     21  O   UNL     1       3.069   1.102   0.726  0.00  0.00    +0.000 OA
BRANCH  21  23
ATOM     22  C   UNL     1       1.057  -0.067   0.013  0.00  0.00    +0.000 C 
ATOM     23  C   UNL     1       2.582  -0.044  -0.003  0.00  0.00    +0.000 C 
ENDBRANCH  21  23
ENDBRANCH  19  21
ENDBRANCH   1  19
BRANCH   7  24
ATOM     24  C   UNL     1       8.293   4.196   2.376  0.00  0.00    +0.000 C 
ATOM     25  O   UNL     1       8.927   4.726   3.283  0.00  0.00    +0.000 OA
BRANCH  24  26
ATOM     26  O   UNL     1       8.833   3.952   1.152  0.00  0.00    +0.000 OA
ATOM     27  C   UNL     1      10.209   4.373   1.041  0.00  0.00    +0.000 C 
ENDBRANCH  24  26
ENDBRANCH   7  24
TORSDOF 7
