REMARK  Name = Nitrazepam
REMARK  2 active torsions:
REMARK  status: ('A' for Active; 'I' for Inactive)
REMARK    1  A    between atoms: N_2  and  C_4
REMARK    2  A    between atoms: C_13  and  C_14
REMARK                            x       y       z     vdW  Elec       q    Type
REMARK                         _______ _______ _______ _____ _____    ______ ____
ROOT
ATOM      1  C   UNL     1       3.021  -0.738  -1.111  0.00  0.00    +0.000 A 
ATOM      2  C   UNL     1       2.639  -0.614  -2.448  0.00  0.00    +0.000 A 
ATOM      3  C   UNL     1       3.290  -1.387  -3.421  0.00  0.00    +0.000 A 
ATOM      4  C   UNL     1       4.334  -2.253  -3.045  0.00  0.00    +0.000 A 
ATOM      5  N   UNL     1       5.038  -3.069  -3.942  0.00  0.00    +0.000 N 
ATOM      6  C   UNL     1       4.516  -3.713  -5.034  0.00  0.00    +0.000 C 
ATOM      7  O   UNL     1       5.237  -4.482  -5.679  0.00  0.00    +0.000 OA
ATOM      8  C   UNL     1       3.032  -3.550  -5.307  0.00  0.00    +0.000 C 
ATOM      9  N   UNL     1       2.738  -2.174  -5.696  0.00  0.00    +0.000 NA
ATOM     10  C   UNL     1       2.870  -1.221  -4.838  0.00  0.00    +0.000 C 
ATOM     11  C   UNL     1       4.728  -2.326  -1.700  0.00  0.00    +0.000 A 
ATOM     12  C   UNL     1       4.062  -1.583  -0.724  0.00  0.00    +0.000 A 
ATOM     13  H   UNL     1       5.974  -3.380  -3.710  0.00  0.00    +0.000 HD
ENDROOT
BRANCH  10  14
ATOM     14  C   UNL     1       2.593   0.153  -5.338  0.00  0.00    +0.000 A 
ATOM     15  C   UNL     1       1.339   0.441  -5.883  0.00  0.00    +0.000 A 
ATOM     16  C   UNL     1       1.152   1.635  -6.578  0.00  0.00    +0.000 A 
ATOM     17  C   UNL     1       2.181   2.575  -6.640  0.00  0.00    +0.000 A 
ATOM     18  C   UNL     1       3.389   2.337  -5.983  0.00  0.00    +0.000 A 
ATOM     19  C   UNL     1       3.618   1.104  -5.370  0.00  0.00    +0.000 A 
ENDBRANCH  10  14
BRANCH   1  21
ATOM     20  O   UNL     1       1.057   0.012  -0.180  0.00  0.00    +0.000 OA
ATOM     21  N   UNL     1       2.292   0.003  -0.092  0.00  0.00    +0.000 N 
ATOM     22  O   UNL     1       2.959   0.559   0.789  0.00  0.00    +0.000 OA
ENDBRANCH   1  21
TORSDOF 2
