REMARK  Name = Nizatidine
REMARK  13 active torsions:
REMARK  status: ('A' for Active; 'I' for Inactive)
REMARK    1  A    between atoms: C_1  and  N_2
REMARK    2  A    between atoms: N_2  and  C_3
REMARK    3  A    between atoms: C_3  and  N_4
REMARK    4  A    between atoms: N_4  and  C_5
REMARK    5  A    between atoms: C_5  and  C_6
REMARK    6  A    between atoms: C_6  and  S_7
REMARK    7  A    between atoms: S_7  and  C_8
REMARK    8  A    between atoms: C_8  and  C_9
REMARK    9  A    between atoms: C_12  and  C_13
REMARK   10  A    between atoms: C_13  and  N_14
REMARK   11  A    between atoms: N_14  and  C_15
REMARK   12  A    between atoms: N_14  and  C_16
REMARK   13  A    between atoms: C_18  and  N_19
REMARK                            x       y       z     vdW  Elec       q    Type
REMARK                         _______ _______ _______ _____ _____    ______ ____
ROOT
ATOM      1  C   UNL     1       0.525  -3.962  -0.912  0.00  0.00    +0.000 C 
ENDROOT
BRANCH   1   2
ATOM      2  C   UNL     1       1.031  -2.561  -0.613  0.00  0.00    +0.000 C 
BRANCH   2   3
ATOM      3  N   UNL     1       2.464  -2.400  -0.571  0.00  0.00    +0.000 N 
ATOM      4  H   UNL     1       3.024  -3.236  -0.760  0.00  0.00    +0.000 HD
BRANCH   3   5
ATOM      5  C   UNL     1       3.188  -1.242  -0.326  0.00  0.00    +0.000 C 
ATOM      6  C   UNL     1       4.541  -1.238  -0.328  0.00  0.00    +0.000 C 
BRANCH   5   8
ATOM      7  C   UNL     1       1.120   0.248  -0.009  0.00  0.00    +0.000 C 
ATOM      8  N   UNL     1       2.540  -0.031  -0.065  0.00  0.00    +0.000 N 
ATOM      9  H   UNL     1       3.128   0.781   0.102  0.00  0.00    +0.000 HD
ENDBRANCH   5   8
BRANCH   6  10
ATOM     10  N   UNL     1       5.343  -2.419  -0.581  0.00  0.00    +0.000 N 
ATOM     11  O   UNL     1       4.786  -3.508  -0.813  0.00  0.00    +0.000 OA
ATOM     12  O   UNL     1       6.566  -2.258  -0.546  0.00  0.00    +0.000 OA
ENDBRANCH   6  10
ENDBRANCH   3   5
ENDBRANCH   2   3
ENDBRANCH   1   2
BRANCH   1  13
ATOM     13  S   UNL     1      -1.295  -3.777  -0.853  0.00  0.00    +0.000 S 
BRANCH  13  14
ATOM     14  C   UNL     1      -1.850  -5.464  -1.212  0.00  0.00    +0.000 C 
BRANCH  14  15
ATOM     15  C   UNL     1      -3.347  -5.478  -1.155  0.00  0.00    +0.000 A 
ATOM     16  C   UNL     1      -4.149  -5.581  -0.035  0.00  0.00    +0.000 A 
ATOM     17  S   UNL     1      -5.808  -5.528  -0.479  0.00  0.00    +0.000 S 
ATOM     18  C   UNL     1      -5.350  -5.359  -2.128  0.00  0.00    +0.000 A 
ATOM     19  N   UNL     1      -4.047  -5.313  -2.328  0.00  0.00    +0.000 NA
BRANCH  18  20
ATOM     20  C   UNL     1      -6.394  -5.325  -3.232  0.00  0.00    +0.000 C 
BRANCH  20  21
ATOM     21  N   UNL     1      -5.798  -5.293  -4.590  0.00  0.00    +0.000 NA
ATOM     22  C   UNL     1      -5.004  -6.498  -4.853  0.00  0.00    +0.000 C 
ATOM     23  C   UNL     1      -6.824  -5.156  -5.618  0.00  0.00    +0.000 C 
ENDBRANCH  20  21
ENDBRANCH  18  20
ENDBRANCH  14  15
ENDBRANCH  13  14
ENDBRANCH   1  13
TORSDOF 10
