REMARK  Name = Nomegestrol
REMARK  5 active torsions:
REMARK  status: ('A' for Active; 'I' for Inactive)
REMARK    1  A    between atoms: C_1  and  C_2
REMARK    2  A    between atoms: C_2  and  C_4
REMARK    3  A    between atoms: C_4  and  O_5
REMARK    4  A    between atoms: C_11  and  C_12
REMARK    5  A    between atoms: C_23  and  C_24
REMARK                            x       y       z     vdW  Elec       q    Type
REMARK                         _______ _______ _______ _____ _____    ______ ____
ROOT
ATOM      1  C   UNL     1       4.409   2.063  -0.802  0.00  0.00    +0.000 C 
ATOM      2  C   UNL     1       5.000   0.879  -0.238  0.00  0.00    +0.000 C 
ATOM      3  C   UNL     1       5.724   1.920  -0.737  0.00  0.00    +0.000 C 
ATOM      4  C   UNL     1       7.051   1.503  -0.654  0.00  0.00    +0.000 C 
ATOM      5  C   UNL     1       7.481   0.352  -1.530  0.00  0.00    +0.000 C 
ATOM      6  C   UNL     1       6.852  -0.866  -1.065  0.00  0.00    +0.000 C 
ATOM      7  C   UNL     1       7.328  -2.071  -0.952  0.00  0.00    +0.000 C 
ATOM      8  C   UNL     1       6.345  -3.071  -0.447  0.00  0.00    +0.000 C 
ATOM      9  C   UNL     1       8.636  -2.322  -1.400  0.00  0.00    +0.000 C 
ATOM     10  C   UNL     1       9.097  -3.557  -1.260  0.00  0.00    +0.000 C 
ATOM     11  C   UNL     1      10.323  -3.733  -1.995  0.00  0.00    +0.000 C 
ATOM     12  O   UNL     1      10.428  -3.772  -3.219  0.00  0.00    +0.000 OA
ATOM     13  C   UNL     1      11.464  -3.355  -1.206  0.00  0.00    +0.000 C 
ATOM     14  C   UNL     1      11.100  -1.696  -1.680  0.00  0.00    +0.000 C 
ATOM     15  C   UNL     1       9.497  -1.202  -1.971  0.00  0.00    +0.000 C 
ATOM     16  C   UNL     1       8.997   0.210  -1.411  0.00  0.00    +0.000 C 
ATOM     17  C   UNL     1       9.393   1.561  -1.998  0.00  0.00    +0.000 C 
ATOM     18  C   UNL     1       8.393   2.774  -1.200  0.00  0.00    +0.000 C 
ATOM     19  C   UNL     1       6.409   2.740  -1.295  0.00  0.00    +0.000 C 
ATOM     20  C   UNL     1       6.786   3.193  -2.862  0.00  0.00    +0.000 C 
ENDROOT
BRANCH   1  22
ATOM     21  C   UNL     1       1.481   0.451  -0.325  0.00  0.00    +0.000 C 
ATOM     22  C   UNL     1       3.119   0.544  -0.459  0.00  0.00    +0.000 C 
ATOM     23  O   UNL     1       3.463  -0.607  -0.020  0.00  0.00    +0.000 OA
ENDBRANCH   1  22
BRANCH   1  24
ATOM     24  O   UNL     1       3.612   2.834   0.221  0.00  0.00    +0.000 OA
ATOM     25  H   UNL     1       2.730   2.416   0.343  0.00  0.00    +0.000 HD
ENDBRANCH   1  24
TORSDOF 2
