REMARK  Name = Nomegestrol acetate
REMARK  7 active torsions:
REMARK  status: ('A' for Active; 'I' for Inactive)
REMARK    1  A    between atoms: C_5  and  O_6
REMARK    2  A    between atoms: C_5  and  C_10
REMARK    3  A    between atoms: O_6  and  C_7
REMARK    4  A    between atoms: C_7  and  C_8
REMARK    5  A    between atoms: C_10  and  C_11
REMARK    6  A    between atoms: C_13  and  C_14
REMARK    7  A    between atoms: C_27  and  C_28
REMARK                            x       y       z     vdW  Elec       q    Type
REMARK                         _______ _______ _______ _____ _____    ______ ____
ROOT
ATOM      1  C   UNL     1       1.914   0.149   0.410  0.00  0.00    +0.000 C 
ATOM      2  C   UNL     1       2.281  -0.034   1.768  0.00  0.00    +0.000 C 
ATOM      3  C   UNL     1       3.298   0.413   0.812  0.00  0.00    +0.000 C 
ATOM      4  C   UNL     1       2.535   1.050  -1.027  0.00  0.00    +0.000 C 
ATOM      5  C   UNL     1       2.792   1.774   0.097  0.00  0.00    +0.000 C 
ATOM      6  C   UNL     1       1.984   2.876   0.650  0.00  0.00    +0.000 C 
ATOM      7  C   UNL     1       4.498   1.673  -0.468  0.00  0.00    +0.000 C 
ATOM      8  C   UNL     1       4.763   0.333  -1.288  0.00  0.00    +0.000 C 
ATOM      9  C   UNL     1       4.142  -1.059  -0.864  0.00  0.00    +0.000 C 
ATOM     10  C   UNL     1       4.379  -2.190  -1.774  0.00  0.00    +0.000 C 
ATOM     11  C   UNL     1       5.707  -1.952  -2.091  0.00  0.00    +0.000 C 
ATOM     12  C   UNL     1       6.777  -1.382  -2.767  0.00  0.00    +0.000 C 
ATOM     13  C   UNL     1       7.400  -2.720  -1.849  0.00  0.00    +0.000 C 
ATOM     14  O   UNL     1       8.552  -2.645  -1.602  0.00  0.00    +0.000 OA
ATOM     15  C   UNL     1       6.051  -3.830  -0.960  0.00  0.00    +0.000 C 
ATOM     16  C   UNL     1       4.656  -3.447  -0.907  0.00  0.00    +0.000 C 
ATOM     17  C   UNL     1       3.234  -3.691  -0.275  0.00  0.00    +0.000 C 
ATOM     18  C   UNL     1       2.435  -4.893   0.201  0.00  0.00    +0.000 C 
ATOM     19  C   UNL     1       2.370  -2.626  -0.195  0.00  0.00    +0.000 C 
ATOM     20  C   UNL     1       2.656  -1.220  -0.624  0.00  0.00    +0.000 C 
ENDROOT
BRANCH   4  21
ATOM     21  C   UNL     1       2.735   2.427  -2.145  0.00  0.00    +0.000 C 
ATOM     22  C   UNL     1       3.462   3.785  -1.788  0.00  0.00    +0.000 C 
ATOM     23  O   UNL     1       2.267   2.379  -3.297  0.00  0.00    +0.000 OA
ENDBRANCH   4  21
BRANCH   4  24
ATOM     24  O   UNL     1       0.884   1.278  -1.330  0.00  0.00    +0.000 OA
BRANCH  24  25
ATOM     25  C   UNL     1      -0.262   0.497  -1.446  0.00  0.00    +0.000 C 
ATOM     26  C   UNL     1      -0.081  -0.939  -1.147  0.00  0.00    +0.000 C 
ATOM     27  O   UNL     1      -1.384   0.950  -1.627  0.00  0.00    +0.000 OA
ENDBRANCH  24  25
ENDBRANCH   4  24
TORSDOF 3
