REMARK  Name = Nomifensine
REMARK  3 active torsions:
REMARK  status: ('A' for Active; 'I' for Inactive)
REMARK    1  A    between atoms: C_1  and  N_2
REMARK    2  A    between atoms: C_4  and  C_5
REMARK    3  A    between atoms: C_14  and  N_15
REMARK                            x       y       z     vdW  Elec       q    Type
REMARK                         _______ _______ _______ _____ _____    ______ ____
ROOT
ATOM      1  C   UNL     1       0.969   0.072   0.141  0.00  0.00    +0.000 C 
ATOM      2  N   UNL     1       2.419   0.076   0.202  0.00  0.00    +0.000 NA
ATOM      3  C   UNL     1       2.974  -1.051   0.960  0.00  0.00    +0.000 C 
ATOM      4  C   UNL     1       4.502  -1.173   0.708  0.00  0.00    +0.000 C 
ATOM      5  C   UNL     1       5.200   0.158   0.942  0.00  0.00    +0.000 A 
ATOM      6  C   UNL     1       4.469   1.372   0.875  0.00  0.00    +0.000 A 
ATOM      7  C   UNL     1       2.959   1.349   0.690  0.00  0.00    +0.000 C 
ATOM      8  C   UNL     1       5.150   2.599   1.005  0.00  0.00    +0.000 A 
ATOM      9  C   UNL     1       6.536   2.582   1.224  0.00  0.00    +0.000 A 
ATOM     10  C   UNL     1       7.253   1.385   1.278  0.00  0.00    +0.000 A 
ATOM     11  C   UNL     1       6.588   0.176   1.142  0.00  0.00    +0.000 A 
ENDROOT
BRANCH   4  12
ATOM     12  C   UNL     1       4.796  -1.702  -0.698  0.00  0.00    +0.000 A 
ATOM     13  C   UNL     1       5.429  -2.930  -0.891  0.00  0.00    +0.000 A 
ATOM     14  C   UNL     1       5.567  -3.449  -2.184  0.00  0.00    +0.000 A 
ATOM     15  C   UNL     1       5.205  -2.680  -3.293  0.00  0.00    +0.000 A 
ATOM     16  C   UNL     1       4.661  -1.421  -3.118  0.00  0.00    +0.000 A 
ATOM     17  C   UNL     1       4.420  -0.954  -1.830  0.00  0.00    +0.000 A 
ENDBRANCH   4  12
BRANCH   8  18
ATOM     18  N   UNL     1       4.461   3.812   1.161  0.00  0.00    +0.000 N 
ATOM     19  H   UNL     1       3.535   3.863   0.754  0.00  0.00    +0.000 HD
ATOM     20  H   UNL     1       5.011   4.648   1.000  0.00  0.00    +0.000 HD
ENDBRANCH   8  18
TORSDOF 2
