REMARK  Name = Norethisterone
REMARK  3 active torsions:
REMARK  status: ('A' for Active; 'I' for Inactive)
REMARK    1  A    between atoms: C_5  and  O_6
REMARK    2  A    between atoms: C_5  and  C_7
REMARK    3  A    between atoms: C_9  and  C_10
REMARK                            x       y       z     vdW  Elec       q    Type
REMARK                         _______ _______ _______ _____ _____    ______ ____
ROOT
ATOM      1  C   UNL     1       1.614   0.019  -0.237  0.00  0.00    +0.000 C 
ATOM      2  C   UNL     1       2.055   0.006  -1.581  0.00  0.00    +0.000 C 
ATOM      3  C   UNL     1       3.077  -0.354  -0.573  0.00  0.00    +0.000 C 
ATOM      4  C   UNL     1       2.305  -0.845   1.301  0.00  0.00    +0.000 C 
ATOM      5  C   UNL     1       2.500  -1.615   0.190  0.00  0.00    +0.000 C 
ATOM      6  C   UNL     1       1.865  -2.869  -0.195  0.00  0.00    +0.000 C 
ATOM      7  C   UNL     1       4.243  -1.634   0.722  0.00  0.00    +0.000 C 
ATOM      8  C   UNL     1       4.552  -0.218   1.477  0.00  0.00    +0.000 C 
ATOM      9  C   UNL     1       3.862   1.203   1.017  0.00  0.00    +0.000 C 
ATOM     10  C   UNL     1       4.260   2.317   1.883  0.00  0.00    +0.000 C 
ATOM     11  C   UNL     1       5.631   2.087   2.027  0.00  0.00    +0.000 C 
ATOM     12  C   UNL     1       6.824   1.544   2.502  0.00  0.00    +0.000 C 
ATOM     13  C   UNL     1       7.324   2.893   1.597  0.00  0.00    +0.000 C 
ATOM     14  O   UNL     1       8.470   2.917   1.309  0.00  0.00    +0.000 OA
ATOM     15  C   UNL     1       5.886   3.971   0.870  0.00  0.00    +0.000 C 
ATOM     16  C   UNL     1       4.484   3.593   1.027  0.00  0.00    +0.000 C 
ATOM     17  C   UNL     1       2.935   3.909   0.680  0.00  0.00    +0.000 C 
ATOM     18  C   UNL     1       2.090   2.721   0.047  0.00  0.00    +0.000 C 
ATOM     19  C   UNL     1       2.325   1.382   0.731  0.00  0.00    +0.000 C 
ENDROOT
BRANCH   4  20
ATOM     20  O   UNL     1       2.594  -1.893   2.297  0.00  0.00    +0.000 OA
ATOM     21  H   UNL     1       3.454  -1.975   2.726  0.00  0.00    +0.000 HD
ENDBRANCH   4  20
BRANCH   4  22
ATOM     22  C   UNL     1       0.756  -0.872   1.699  0.00  0.00    +0.000 C 
ATOM     23  C   UNL     1      -0.391  -1.033   2.001  0.00  0.00    +0.000 C 
ENDBRANCH   4  22
TORSDOF 2
