REMARK  Name = Norethynodrel
REMARK  3 active torsions:
REMARK  status: ('A' for Active; 'I' for Inactive)
REMARK    1  A    between atoms: C_5  and  O_6
REMARK    2  A    between atoms: C_5  and  C_7
REMARK    3  A    between atoms: C_9  and  C_10
REMARK                            x       y       z     vdW  Elec       q    Type
REMARK                         _______ _______ _______ _____ _____    ______ ____
ROOT
ATOM      1  C   UNL     1       1.784   0.070   0.321  0.00  0.00    +0.000 C 
ATOM      2  C   UNL     1       2.242   0.368   1.629  0.00  0.00    +0.000 C 
ATOM      3  C   UNL     1       3.177   0.505   0.484  0.00  0.00    +0.000 C 
ATOM      4  C   UNL     1       2.202   0.681  -1.358  0.00  0.00    +0.000 C 
ATOM      5  C   UNL     1       2.706   1.569  -0.462  0.00  0.00    +0.000 C 
ATOM      6  C   UNL     1       2.233   2.923  -0.119  0.00  0.00    +0.000 C 
ATOM      7  C   UNL     1       4.356   1.258  -1.201  0.00  0.00    +0.000 C 
ATOM      8  C   UNL     1       4.469  -0.282  -1.767  0.00  0.00    +0.000 C 
ATOM      9  C   UNL     1       3.976  -1.495  -0.849  0.00  0.00    +0.000 C 
ATOM     10  C   UNL     1       4.257  -2.861  -1.369  0.00  0.00    +0.000 C 
ATOM     11  C   UNL     1       3.505  -3.921  -0.997  0.00  0.00    +0.000 C 
ATOM     12  C   UNL     1       2.313  -3.854  -0.058  0.00  0.00    +0.000 C 
ATOM     13  C   UNL     1       2.148  -2.531   0.651  0.00  0.00    +0.000 C 
ATOM     14  C   UNL     1       2.398  -1.448  -0.367  0.00  0.00    +0.000 C 
ATOM     15  C   UNL     1       3.784  -5.295  -1.522  0.00  0.00    +0.000 C 
ATOM     16  C   UNL     1       4.785  -5.212  -2.655  0.00  0.00    +0.000 C 
ATOM     17  O   UNL     1       4.634  -5.793  -3.726  0.00  0.00    +0.000 OA
ATOM     18  C   UNL     1       5.990  -4.363  -2.362  0.00  0.00    +0.000 C 
ATOM     19  C   UNL     1       5.487  -2.951  -2.232  0.00  0.00    +0.000 C 
ENDROOT
BRANCH   4  20
ATOM     20  O   UNL     1       2.425   1.597  -2.496  0.00  0.00    +0.000 OA
ATOM     21  H   UNL     1       3.162   1.459  -3.101  0.00  0.00    +0.000 HD
ENDBRANCH   4  20
BRANCH   4  22
ATOM     22  C   UNL     1       0.616   0.883  -1.496  0.00  0.00    +0.000 C 
ATOM     23  C   UNL     1      -0.576   1.127  -1.631  0.00  0.00    +0.000 C 
ENDBRANCH   4  22
TORSDOF 2
