REMARK  Name = Norepinephrine
REMARK  6 active torsions:
REMARK  status: ('A' for Active; 'I' for Inactive)
REMARK    1  A    between atoms: N_1  and  C_2
REMARK    2  A    between atoms: C_2  and  C_3
REMARK    3  A    between atoms: C_3  and  O_4
REMARK    4  A    between atoms: C_3  and  C_5
REMARK    5  A    between atoms: C_7  and  O_8
REMARK    6  A    between atoms: C_9  and  O_10
REMARK                            x       y       z     vdW  Elec       q    Type
REMARK                         _______ _______ _______ _____ _____    ______ ____
ROOT
ATOM      1  C   UNL     1       4.561  -0.678  -1.186  0.00  0.00    +0.000 A 
ATOM      2  C   UNL     1       5.362   0.453  -1.432  0.00  0.00    +0.000 A 
ATOM      3  C   UNL     1       6.737   0.371  -1.540  0.00  0.00    +0.000 A 
ATOM      4  C   UNL     1       7.377  -0.814  -1.197  0.00  0.00    +0.000 A 
ATOM      5  C   UNL     1       6.631  -1.913  -0.806  0.00  0.00    +0.000 A 
ATOM      6  C   UNL     1       5.232  -1.862  -0.825  0.00  0.00    +0.000 A 
ENDROOT
BRANCH   3   7
ATOM      7  O   UNL     1       7.494   1.423  -1.969  0.00  0.00    +0.000 OA
ATOM      8  H   UNL     1       6.891   2.109  -2.315  0.00  0.00    +0.000 HD
ENDBRANCH   3   7
BRANCH   4   9
ATOM      9  O   UNL     1       8.736  -0.870  -1.212  0.00  0.00    +0.000 OA
ATOM     10  H   UNL     1       9.017   0.032  -1.471  0.00  0.00    +0.000 HD
ENDBRANCH   4   9
BRANCH   1  11
ATOM     11  C   UNL     1       3.034  -0.669  -1.241  0.00  0.00    +0.000 C 
BRANCH  11  12
ATOM     12  O   UNL     1       2.548  -0.130  -0.014  0.00  0.00    +0.000 OA
ATOM     13  H   UNL     1       2.725   0.825  -0.073  0.00  0.00    +0.000 HD
ENDBRANCH  11  12
BRANCH  11  14
ATOM     14  C   UNL     1       2.375   0.094  -2.436  0.00  0.00    +0.000 C 
BRANCH  14  15
ATOM     15  N   UNL     1       2.900   1.459  -2.595  0.00  0.00    +0.000 NA
ATOM     16  H   UNL     1       2.373   1.988  -3.284  0.00  0.00    +0.000 HD
ATOM     17  H   UNL     1       3.812   1.334  -3.038  0.00  0.00    +0.000 HD
ENDBRANCH  14  15
ENDBRANCH  11  14
ENDBRANCH   1  11
TORSDOF 6
