REMARK  Name = Norelgestromin
REMARK  5 active torsions:
REMARK  status: ('A' for Active; 'I' for Inactive)
REMARK    1  A    between atoms: C_5  and  O_6
REMARK    2  A    between atoms: C_5  and  C_7
REMARK    3  A    between atoms: C_9  and  C_10
REMARK    4  A    between atoms: C_10  and  C_11
REMARK    5  A    between atoms: N_27  and  O_28
REMARK                            x       y       z     vdW  Elec       q    Type
REMARK                         _______ _______ _______ _____ _____    ______ ____
ROOT
ATOM      1  C   UNL     1       1.688   0.105  -0.163  0.00  0.00    +0.000 C 
ATOM      2  C   UNL     1       2.153   0.238  -1.492  0.00  0.00    +0.000 C 
ATOM      3  C   UNL     1       3.143  -0.266  -0.512  0.00  0.00    +0.000 C 
ATOM      4  C   UNL     1       2.369  -0.788   1.364  0.00  0.00    +0.000 C 
ATOM      5  C   UNL     1       2.561  -1.544   0.246  0.00  0.00    +0.000 C 
ATOM      6  C   UNL     1       4.290  -1.580   0.775  0.00  0.00    +0.000 C 
ATOM      7  C   UNL     1       4.597  -0.184   1.531  0.00  0.00    +0.000 C 
ATOM      8  C   UNL     1       3.941   1.251   1.083  0.00  0.00    +0.000 C 
ATOM      9  C   UNL     1       4.374   2.348   1.944  0.00  0.00    +0.000 C 
ATOM     10  C   UNL     1       5.725   2.078   2.056  0.00  0.00    +0.000 C 
ATOM     11  C   UNL     1       6.780   1.393   2.570  0.00  0.00    +0.000 C 
ATOM     12  C   UNL     1       7.693   2.769   1.813  0.00  0.00    +0.000 C 
ATOM     13  C   UNL     1       6.227   3.849   0.993  0.00  0.00    +0.000 C 
ATOM     14  C   UNL     1       4.713   3.588   1.101  0.00  0.00    +0.000 C 
ATOM     15  C   UNL     1       3.076   3.944   0.753  0.00  0.00    +0.000 C 
ATOM     16  C   UNL     1       2.181   2.775   0.139  0.00  0.00    +0.000 C 
ATOM     17  C   UNL     1       2.405   1.440   0.822  0.00  0.00    +0.000 C 
ATOM     18  N   UNL     1       8.474   1.703   1.933  0.00  0.00    +0.000 NA
ENDROOT
BRANCH   4  19
ATOM     19  O   UNL     1       2.657  -1.853   2.352  0.00  0.00    +0.000 OA
ATOM     20  H   UNL     1       3.519  -1.968   2.773  0.00  0.00    +0.000 HD
ENDBRANCH   4  19
BRANCH   4  21
ATOM     21  C   UNL     1       0.838  -0.834   1.745  0.00  0.00    +0.000 C 
ATOM     22  C   UNL     1      -0.356  -1.017   2.057  0.00  0.00    +0.000 C 
ENDBRANCH   4  21
BRANCH   5  23
ATOM     23  C   UNL     1       1.960  -2.814  -0.140  0.00  0.00    +0.000 C 
ATOM     24  C   UNL     1       2.484  -2.965  -1.542  0.00  0.00    +0.000 C 
ENDBRANCH   5  23
BRANCH  18  25
ATOM     25  O   UNL     1       9.746   1.408   2.475  0.00  0.00    +0.000 OA
ATOM     26  H   UNL     1       9.672   0.466   2.825  0.00  0.00    +0.000 HD
ENDBRANCH  18  25
TORSDOF 4
