REMARK  Name = Norfloxacin
REMARK  5 active torsions:
REMARK  status: ('A' for Active; 'I' for Inactive)
REMARK    1  A    between atoms: C_1  and  C_2
REMARK    2  A    between atoms: C_2  and  N_3
REMARK    3  A    between atoms: C_5  and  C_6
REMARK    4  A    between atoms: C_6  and  O_7
REMARK    5  A    between atoms: C_15  and  N_18
REMARK                            x       y       z     vdW  Elec       q    Type
REMARK                         _______ _______ _______ _____ _____    ______ ____
ROOT
ATOM      1  N   UNL     1       2.987   0.942   0.956  0.00  0.00    +0.000 N 
ATOM      2  C   UNL     1       2.678   2.304   0.943  0.00  0.00    +0.000 A 
ATOM      3  C   UNL     1       2.915   3.199   1.915  0.00  0.00    +0.000 A 
ATOM      4  C   UNL     1       3.588   2.690   3.120  0.00  0.00    +0.000 A 
ATOM      5  O   UNL     1       3.830   3.455   4.056  0.00  0.00    +0.000 OA
ATOM      6  C   UNL     1       3.928   1.249   3.182  0.00  0.00    +0.000 A 
ATOM      7  C   UNL     1       4.491   0.760   4.359  0.00  0.00    +0.000 A 
ATOM      8  C   UNL     1       4.632  -0.610   4.514  0.00  0.00    +0.000 A 
ATOM      9  F   UNL     1       5.024  -1.069   5.713  0.00  0.00    +0.000 F 
ATOM     10  C   UNL     1       4.362  -1.514   3.473  0.00  0.00    +0.000 A 
ATOM     11  C   UNL     1       3.958  -0.971   2.244  0.00  0.00    +0.000 A 
ATOM     12  C   UNL     1       3.625   0.396   2.097  0.00  0.00    +0.000 A 
ENDROOT
BRANCH  10  13
ATOM     13  N   UNL     1       4.375  -2.875   3.684  0.00  0.00    +0.000 N 
ATOM     14  C   UNL     1       5.114  -3.878   2.914  0.00  0.00    +0.000 C 
ATOM     15  C   UNL     1       5.910  -4.776   3.906  0.00  0.00    +0.000 C 
ATOM     16  N   UNL     1       5.059  -5.392   4.952  0.00  0.00    +0.000 NA
ATOM     17  C   UNL     1       4.324  -4.324   5.666  0.00  0.00    +0.000 C 
ATOM     18  C   UNL     1       3.495  -3.440   4.715  0.00  0.00    +0.000 C 
ATOM     19  H   UNL     1       5.649  -5.886   5.620  0.00  0.00    +0.000 HD
ENDBRANCH  10  13
BRANCH   1  21
ATOM     20  C   UNL     1       0.943   0.008  -0.091  0.00  0.00    +0.000 C 
ATOM     21  C   UNL     1       2.467   0.052  -0.104  0.00  0.00    +0.000 C 
ENDBRANCH   1  21
BRANCH   3  22
ATOM     22  C   UNL     1       2.478   4.604   1.750  0.00  0.00    +0.000 C 
ATOM     23  O   UNL     1       1.906   5.015   0.753  0.00  0.00    +0.000 OA
BRANCH  22  24
ATOM     24  O   UNL     1       2.756   5.413   2.799  0.00  0.00    +0.000 OA
ATOM     25  H   UNL     1       3.215   4.964   3.550  0.00  0.00    +0.000 HD
ENDBRANCH  22  24
ENDBRANCH   3  22
TORSDOF 4
