REMARK  Name = Norflurane
REMARK  1 active torsions:
REMARK  status: ('A' for Active; 'I' for Inactive)
REMARK    1  A    between atoms: C_2  and  C_3
REMARK                            x       y       z     vdW  Elec       q    Type
REMARK                         _______ _______ _______ _____ _____    ______ ____
ROOT
ATOM      1  C   UNL     1       2.898   0.521   1.403  0.00  0.00    +0.000 C 
ATOM      2  F   UNL     1       2.483   1.783   1.643  0.00  0.00    +0.000 F 
ATOM      3  F   UNL     1       2.483  -0.260   2.424  0.00  0.00    +0.000 F 
ATOM      4  F   UNL     1       4.253   0.531   1.429  0.00  0.00    +0.000 F 
ENDROOT
BRANCH   1   6
ATOM      5  F   UNL     1       1.041  -0.006   0.025  0.00  0.00    +0.000 F 
ATOM      6  C   UNL     1       2.402   0.010   0.068  0.00  0.00    +0.000 C 
ENDBRANCH   1   6
TORSDOF 1
