REMARK  Name = Norgestrel
REMARK  4 active torsions:
REMARK  status: ('A' for Active; 'I' for Inactive)
REMARK    1  A    between atoms: C_1  and  C_2
REMARK    2  A    between atoms: C_2  and  C_3
REMARK    3  A    between atoms: C_20  and  O_21
REMARK    4  A    between atoms: C_20  and  C_22
REMARK                            x       y       z     vdW  Elec       q    Type
REMARK                         _______ _______ _______ _____ _____    ______ ____
ROOT
ATOM      1  C   UNL     1       2.840  -1.411   0.808  0.00  0.00    +0.000 C 
ATOM      2  C   UNL     1       1.535  -1.687   2.110  0.00  0.00    +0.000 C 
ATOM      3  C   UNL     1       0.652  -1.009   1.240  0.00  0.00    +0.000 C 
ATOM      4  C   UNL     1       1.525   0.530   1.657  0.00  0.00    +0.000 C 
ATOM      5  C   UNL     1       3.317   0.248   1.838  0.00  0.00    +0.000 C 
ATOM      6  C   UNL     1       4.288   1.492   2.143  0.00  0.00    +0.000 C 
ATOM      7  C   UNL     1       4.092   2.538   1.010  0.00  0.00    +0.000 C 
ATOM      8  C   UNL     1       2.623   2.863   0.813  0.00  0.00    +0.000 C 
ATOM      9  C   UNL     1       2.441   4.080   0.275  0.00  0.00    +0.000 C 
ATOM     10  C   UNL     1       1.123   4.659   0.535  0.00  0.00    +0.000 C 
ATOM     11  O   UNL     1       0.998   5.650   1.243  0.00  0.00    +0.000 OA
ATOM     12  C   UNL     1       0.008   3.748   0.195  0.00  0.00    +0.000 C 
ATOM     13  C   UNL     1       0.083   2.715   1.350  0.00  0.00    +0.000 C 
ATOM     14  C   UNL     1       1.351   1.921   0.990  0.00  0.00    +0.000 C 
ATOM     15  C   UNL     1       3.528  -1.378   2.038  0.00  0.00    +0.000 C 
ATOM     16  C   UNL     1       2.903  -3.088   1.161  0.00  0.00    +0.000 C 
ATOM     17  C   UNL     1       3.694  -3.251  -0.141  0.00  0.00    +0.000 C 
ATOM     18  C   UNL     1       4.457  -2.264   0.586  0.00  0.00    +0.000 C 
ENDROOT
BRANCH   1  20
ATOM     19  C   UNL     1       0.787  -0.099  -1.061  0.00  0.00    +0.000 C 
ATOM     20  C   UNL     1       2.398  -0.357  -0.590  0.00  0.00    +0.000 C 
ENDBRANCH   1  20
BRANCH  18  21
ATOM     21  O   UNL     1       5.441  -1.562  -0.106  0.00  0.00    +0.000 OA
ATOM     22  H   UNL     1       4.995  -0.982  -0.734  0.00  0.00    +0.000 HD
ENDBRANCH  18  21
BRANCH  18  23
ATOM     23  C   UNL     1       5.118  -3.029   1.882  0.00  0.00    +0.000 C 
ATOM     24  C   UNL     1       5.144  -3.566   3.037  0.00  0.00    +0.000 C 
ENDBRANCH  18  23
TORSDOF 3
