REMARK  Name = Norgestimate
REMARK  7 active torsions:
REMARK  status: ('A' for Active; 'I' for Inactive)
REMARK    1  A    between atoms: C_5  and  O_6
REMARK    2  A    between atoms: C_5  and  C_10
REMARK    3  A    between atoms: O_6  and  C_7
REMARK    4  A    between atoms: C_7  and  C_8
REMARK    5  A    between atoms: C_12  and  C_13
REMARK    6  A    between atoms: C_13  and  C_14
REMARK    7  A    between atoms: N_30  and  O_31
REMARK                            x       y       z     vdW  Elec       q    Type
REMARK                         _______ _______ _______ _____ _____    ______ ____
ROOT
ATOM      1  C   UNL     1       1.738   0.283  -0.196  0.00  0.00    +0.000 C 
ATOM      2  C   UNL     1       2.217   0.362  -1.524  0.00  0.00    +0.000 C 
ATOM      3  C   UNL     1       3.208  -0.201  -0.552  0.00  0.00    +0.000 C 
ATOM      4  C   UNL     1       2.429  -0.850   1.287  0.00  0.00    +0.000 C 
ATOM      5  C   UNL     1       2.590  -1.365   0.053  0.00  0.00    +0.000 C 
ATOM      6  C   UNL     1       4.343  -1.481   0.689  0.00  0.00    +0.000 C 
ATOM      7  C   UNL     1       4.604  -0.142   1.504  0.00  0.00    +0.000 C 
ATOM      8  C   UNL     1       3.934   1.298   1.071  0.00  0.00    +0.000 C 
ATOM      9  C   UNL     1       4.316   2.418   1.930  0.00  0.00    +0.000 C 
ATOM     10  C   UNL     1       5.618   2.191   2.037  0.00  0.00    +0.000 C 
ATOM     11  C   UNL     1       6.632   1.399   2.513  0.00  0.00    +0.000 C 
ATOM     12  C   UNL     1       7.497   2.495   1.878  0.00  0.00    +0.000 C 
ATOM     13  C   UNL     1       6.327   3.861   1.019  0.00  0.00    +0.000 C 
ATOM     14  C   UNL     1       4.755   3.656   1.090  0.00  0.00    +0.000 C 
ATOM     15  C   UNL     1       3.139   4.017   0.728  0.00  0.00    +0.000 C 
ATOM     16  C   UNL     1       2.237   2.847   0.118  0.00  0.00    +0.000 C 
ATOM     17  C   UNL     1       2.426   1.493   0.792  0.00  0.00    +0.000 C 
ATOM     18  N   UNL     1       8.663   1.906   2.202  0.00  0.00    +0.000 NA
ENDROOT
BRANCH   4  19
ATOM     19  C   UNL     1       0.926  -0.877   1.694  0.00  0.00    +0.000 C 
ATOM     20  C   UNL     1      -0.228  -1.012   2.007  0.00  0.00    +0.000 C 
ENDBRANCH   4  19
BRANCH   5  21
ATOM     21  C   UNL     1       2.073  -2.467  -0.687  0.00  0.00    +0.000 C 
ATOM     22  C   UNL     1       2.607  -2.753  -2.024  0.00  0.00    +0.000 C 
ENDBRANCH   5  21
BRANCH  18  23
ATOM     23  O   UNL     1       8.331   0.427   3.038  0.00  0.00    +0.000 OA
ATOM     24  H   UNL     1       9.025  -0.238   3.195  0.00  0.00    +0.000 HD
ENDBRANCH  18  23
BRANCH   4  25
ATOM     25  O   UNL     1       2.870  -2.162   2.256  0.00  0.00    +0.000 OA
BRANCH  25  26
ATOM     26  C   UNL     1       2.696  -3.559   2.358  0.00  0.00    +0.000 C 
ATOM     27  C   UNL     1       2.104  -4.255   1.195  0.00  0.00    +0.000 C 
ATOM     28  O   UNL     1       3.117  -4.236   3.293  0.00  0.00    +0.000 OA
ENDBRANCH  25  26
ENDBRANCH   4  25
TORSDOF 5
