REMARK  Name = Normethadone
REMARK  10 active torsions:
REMARK  status: ('A' for Active; 'I' for Inactive)
REMARK    1  A    between atoms: C_1  and  C_2
REMARK    2  A    between atoms: C_2  and  C_3
REMARK    3  A    between atoms: C_3  and  C_5
REMARK    4  A    between atoms: C_5  and  C_6
REMARK    5  A    between atoms: C_5  and  C_11
REMARK    6  A    between atoms: C_5  and  C_17
REMARK    7  A    between atoms: C_6  and  C_7
REMARK    8  A    between atoms: C_7  and  N_8
REMARK    9  A    between atoms: N_8  and  C_9
REMARK   10  A    between atoms: N_8  and  C_10
REMARK                            x       y       z     vdW  Elec       q    Type
REMARK                         _______ _______ _______ _____ _____    ______ ____
ROOT
ATOM      1  C   UNL     1       4.441   0.709  -1.702  0.00  0.00    +0.000 C 
ENDROOT
BRANCH   1   2
ATOM      2  C   UNL     1       5.109  -0.689  -1.577  0.00  0.00    +0.000 A 
ATOM      3  C   UNL     1       4.397  -1.852  -1.909  0.00  0.00    +0.000 A 
ATOM      4  C   UNL     1       4.954  -3.110  -1.689  0.00  0.00    +0.000 A 
ATOM      5  C   UNL     1       6.269  -3.227  -1.245  0.00  0.00    +0.000 A 
ATOM      6  C   UNL     1       7.025  -2.089  -0.999  0.00  0.00    +0.000 A 
ATOM      7  C   UNL     1       6.452  -0.834  -1.168  0.00  0.00    +0.000 A 
ENDBRANCH   1   2
BRANCH   1   8
ATOM      8  C   UNL     1       4.667   1.321  -3.113  0.00  0.00    +0.000 A 
ATOM      9  C   UNL     1       5.344   0.654  -4.141  0.00  0.00    +0.000 A 
ATOM     10  C   UNL     1       5.606   1.297  -5.353  0.00  0.00    +0.000 A 
ATOM     11  C   UNL     1       5.186   2.608  -5.568  0.00  0.00    +0.000 A 
ATOM     12  C   UNL     1       4.473   3.272  -4.588  0.00  0.00    +0.000 A 
ATOM     13  C   UNL     1       4.158   2.599  -3.419  0.00  0.00    +0.000 A 
ENDBRANCH   1   8
BRANCH   1  14
ATOM     14  C   UNL     1       2.913   0.605  -1.417  0.00  0.00    +0.000 C 
ATOM     15  O   UNL     1       2.065   0.971  -2.249  0.00  0.00    +0.000 OA
BRANCH  14  17
ATOM     16  C   UNL     1       0.936   0.010  -0.039  0.00  0.00    +0.000 C 
ATOM     17  C   UNL     1       2.454   0.041  -0.081  0.00  0.00    +0.000 C 
ENDBRANCH  14  17
ENDBRANCH   1  14
BRANCH   1  18
ATOM     18  C   UNL     1       5.076   1.624  -0.592  0.00  0.00    +0.000 C 
BRANCH  18  19
ATOM     19  C   UNL     1       4.538   3.048  -0.494  0.00  0.00    +0.000 C 
BRANCH  19  20
ATOM     20  N   UNL     1       5.160   3.891   0.536  0.00  0.00    +0.000 NA
ATOM     21  C   UNL     1       6.597   4.038   0.251  0.00  0.00    +0.000 C 
ATOM     22  C   UNL     1       4.524   5.217   0.427  0.00  0.00    +0.000 C 
ENDBRANCH  19  20
ENDBRANCH  18  19
ENDBRANCH   1  18
TORSDOF 7
