REMARK  Name = Nortriptyline
REMARK  4 active torsions:
REMARK  status: ('A' for Active; 'I' for Inactive)
REMARK    1  A    between atoms: C_1  and  N_2
REMARK    2  A    between atoms: N_2  and  C_3
REMARK    3  A    between atoms: C_3  and  C_4
REMARK    4  A    between atoms: C_4  and  C_5
REMARK                            x       y       z     vdW  Elec       q    Type
REMARK                         _______ _______ _______ _____ _____    ______ ____
ROOT
ATOM      1  C   UNL     1       5.003   1.843   2.164  0.00  0.00    +0.000 C 
ATOM      2  C   UNL     1       6.324   2.039   2.374  0.00  0.00    +0.000 C 
ATOM      3  C   UNL     1       7.301   1.285   1.557  0.00  0.00    +0.000 A 
ATOM      4  C   UNL     1       7.471   1.550   0.193  0.00  0.00    +0.000 A 
ATOM      5  C   UNL     1       8.413   0.837  -0.547  0.00  0.00    +0.000 A 
ATOM      6  C   UNL     1       9.209  -0.121   0.077  0.00  0.00    +0.000 A 
ATOM      7  C   UNL     1       9.059  -0.378   1.439  0.00  0.00    +0.000 A 
ATOM      8  C   UNL     1       8.096   0.313   2.183  0.00  0.00    +0.000 A 
ATOM      9  C   UNL     1       7.953   0.077   3.664  0.00  0.00    +0.000 C 
ATOM     10  C   UNL     1       8.534   1.252   4.445  0.00  0.00    +0.000 C 
ATOM     11  C   UNL     1       7.790   2.576   4.403  0.00  0.00    +0.000 A 
ATOM     12  C   UNL     1       8.209   3.528   5.355  0.00  0.00    +0.000 A 
ATOM     13  C   UNL     1       7.628   4.791   5.422  0.00  0.00    +0.000 A 
ATOM     14  C   UNL     1       6.622   5.135   4.530  0.00  0.00    +0.000 A 
ATOM     15  C   UNL     1       6.203   4.215   3.569  0.00  0.00    +0.000 A 
ATOM     16  C   UNL     1       6.769   2.927   3.489  0.00  0.00    +0.000 A 
ENDROOT
BRANCH   1  17
ATOM     17  C   UNL     1       4.407   0.938   1.109  0.00  0.00    +0.000 C 
BRANCH  17  18
ATOM     18  C   UNL     1       2.874   0.939   1.111  0.00  0.00    +0.000 C 
BRANCH  18  20
ATOM     19  C   UNL     1       0.916   0.063   0.025  0.00  0.00    +0.000 C 
ATOM     20  N   UNL     1       2.371   0.067   0.044  0.00  0.00    +0.000 NA
ATOM     21  H   UNL     1       2.722   0.392  -0.857  0.00  0.00    +0.000 HD
ENDBRANCH  18  20
ENDBRANCH  17  18
ENDBRANCH   1  17
TORSDOF 3
