REMARK  Name = Noscapine
REMARK  8 active torsions:
REMARK  status: ('A' for Active; 'I' for Inactive)
REMARK    1  A    between atoms: C_2  and  C_16
REMARK    2  A    between atoms: C_10  and  O_11
REMARK    3  A    between atoms: O_11  and  C_12
REMARK    4  A    between atoms: C_13  and  O_14
REMARK    5  A    between atoms: O_14  and  C_15
REMARK    6  A    between atoms: N_18  and  C_19
REMARK    7  A    between atoms: C_29  and  O_30
REMARK    8  A    between atoms: O_30  and  C_31
REMARK                            x       y       z     vdW  Elec       q    Type
REMARK                         _______ _______ _______ _____ _____    ______ ____
ROOT
ATOM      1  C   UNL     1       2.563  -0.157  -1.448  0.00  0.00    +0.000 C 
ATOM      2  N   UNL     1       2.055  -1.400  -2.107  0.00  0.00    +0.000 NA
ATOM      3  C   UNL     1       0.932  -1.074  -3.002  0.00  0.00    +0.000 C 
ATOM      4  C   UNL     1       3.084  -2.116  -2.871  0.00  0.00    +0.000 C 
ATOM      5  C   UNL     1       4.354  -2.308  -2.044  0.00  0.00    +0.000 C 
ATOM      6  C   UNL     1       4.943  -0.953  -1.753  0.00  0.00    +0.000 A 
ATOM      7  C   UNL     1       6.328  -0.778  -1.686  0.00  0.00    +0.000 A 
ATOM      8  C   UNL     1       6.788   0.488  -1.417  0.00  0.00    +0.000 A 
ATOM      9  C   UNL     1       5.937   1.566  -1.278  0.00  0.00    +0.000 A 
ATOM     10  O   UNL     1       6.633   2.711  -1.005  0.00  0.00    +0.000 OA
ATOM     11  C   UNL     1       7.995   2.244  -1.080  0.00  0.00    +0.000 C 
ATOM     12  O   UNL     1       8.101   0.825  -1.295  0.00  0.00    +0.000 OA
ATOM     13  C   UNL     1       4.554   1.451  -1.418  0.00  0.00    +0.000 A 
ATOM     14  C   UNL     1       4.050   0.142  -1.566  0.00  0.00    +0.000 A 
ENDROOT
BRANCH   1  15
ATOM     15  C   UNL     1       2.049  -0.022   0.062  0.00  0.00    +0.000 C 
ATOM     16  O   UNL     1       2.487  -1.205   0.741  0.00  0.00    +0.000 OA
ATOM     17  C   UNL     1       3.407  -0.946   1.710  0.00  0.00    +0.000 C 
ATOM     18  O   UNL     1       3.929  -1.839   2.320  0.00  0.00    +0.000 OA
ATOM     19  C   UNL     1       3.491   0.539   1.863  0.00  0.00    +0.000 A 
ATOM     20  C   UNL     1       2.554   1.058   0.991  0.00  0.00    +0.000 A 
ATOM     21  C   UNL     1       2.242   2.419   1.063  0.00  0.00    +0.000 A 
ATOM     22  C   UNL     1       3.102   3.303   1.701  0.00  0.00    +0.000 A 
ATOM     23  C   UNL     1       4.055   2.803   2.575  0.00  0.00    +0.000 A 
ATOM     24  C   UNL     1       4.215   1.395   2.716  0.00  0.00    +0.000 A 
BRANCH  23  25
ATOM     25  O   UNL     1       4.682   3.819   3.261  0.00  0.00    +0.000 OA
ATOM     26  C   UNL     1       5.480   3.439   4.369  0.00  0.00    +0.000 C 
ENDBRANCH  23  25
BRANCH  24  27
ATOM     27  O   UNL     1       5.071   1.019   3.706  0.00  0.00    +0.000 OA
ATOM     28  C   UNL     1       5.232  -0.349   3.975  0.00  0.00    +0.000 C 
ENDBRANCH  24  27
ENDBRANCH   1  15
BRANCH  13  29
ATOM     29  O   UNL     1       3.844   2.623  -1.371  0.00  0.00    +0.000 OA
ATOM     30  C   UNL     1       2.471   2.730  -1.746  0.00  0.00    +0.000 C 
ENDBRANCH  13  29
TORSDOF 4
