REMARK  Name = Novobiocin
REMARK  18 active torsions:
REMARK  status: ('A' for Active; 'I' for Inactive)
REMARK    1  A    between atoms: C_1  and  O_2
REMARK    2  A    between atoms: O_2  and  C_3
REMARK    3  A    between atoms: C_4  and  O_5
REMARK    4  A    between atoms: O_5  and  C_6
REMARK    5  A    between atoms: C_9  and  O_10
REMARK    6  A    between atoms: C_11  and  O_12
REMARK    7  A    between atoms: O_12  and  C_13
REMARK    8  A    between atoms: C_14  and  C_15
REMARK    9  A    between atoms: C_20  and  O_21
REMARK   10  A    between atoms: C_22  and  N_23
REMARK   11  A    between atoms: C_24  and  C_26
REMARK   12  A    between atoms: C_29  and  O_30
REMARK   13  A    between atoms: C_31  and  C_32
REMARK   14  A    between atoms: C_32  and  C_33
REMARK   15  A    between atoms: C_34  and  C_35
REMARK   16  A    between atoms: C_34  and  C_36
REMARK   17  A    between atoms: C_42  and  C_43
REMARK   18  A    between atoms: C_42  and  C_44
REMARK                            x       y       z     vdW  Elec       q    Type
REMARK                         _______ _______ _______ _____ _____    ______ ____
ROOT
ATOM      1  C   UNL     1       4.991  -4.337  -2.032  0.00  0.00    +0.000 A 
ATOM      2  C   UNL     1       6.172  -4.170  -1.326  0.00  0.00    +0.000 A 
ATOM      3  C   UNL     1       6.438  -3.652   0.060  0.00  0.00    +0.000 C 
ATOM      4  C   UNL     1       7.371  -4.442  -1.991  0.00  0.00    +0.000 A 
ATOM      5  C   UNL     1       7.534  -4.873  -3.284  0.00  0.00    +0.000 A 
ATOM      6  C   UNL     1       6.342  -5.086  -3.969  0.00  0.00    +0.000 A 
ATOM      7  C   UNL     1       5.095  -4.937  -3.305  0.00  0.00    +0.000 A 
ATOM      8  C   UNL     1       8.932  -5.129  -3.701  0.00  0.00    +0.000 A 
ATOM      9  C   UNL     1       9.983  -4.937  -2.855  0.00  0.00    +0.000 A 
ATOM     10  C   UNL     1       9.754  -4.387  -1.471  0.00  0.00    +0.000 A 
ATOM     11  O   UNL     1      10.526  -4.124  -0.594  0.00  0.00    +0.000 OA
ATOM     12  O   UNL     1       8.455  -4.169  -1.175  0.00  0.00    +0.000 OA
ENDROOT
BRANCH   9  13
ATOM     13  N   UNL     1      11.273  -5.284  -3.235  0.00  0.00    +0.000 N 
ATOM     14  C   UNL     1      12.416  -5.181  -2.445  0.00  0.00    +0.000 C 
ATOM     15  O   UNL     1      12.576  -4.724  -1.329  0.00  0.00    +0.000 OA
ATOM     16  H   UNL     1      11.336  -5.699  -4.161  0.00  0.00    +0.000 HD
BRANCH  14  17
ATOM     17  C   UNL     1      13.661  -5.675  -3.005  0.00  0.00    +0.000 A 
ATOM     18  C   UNL     1      14.543  -6.408  -2.220  0.00  0.00    +0.000 A 
ATOM     19  C   UNL     1      15.682  -6.939  -2.807  0.00  0.00    +0.000 A 
ATOM     20  C   UNL     1      16.089  -6.447  -4.041  0.00  0.00    +0.000 A 
ATOM     21  C   UNL     1      15.289  -5.545  -4.751  0.00  0.00    +0.000 A 
ATOM     22  C   UNL     1      14.015  -5.265  -4.265  0.00  0.00    +0.000 A 
BRANCH  20  23
ATOM     23  O   UNL     1      17.291  -6.812  -4.575  0.00  0.00    +0.000 OA
ATOM     24  H   UNL     1      17.769  -7.367  -3.937  0.00  0.00    +0.000 HD
ENDBRANCH  20  23
BRANCH  21  25
ATOM     25  C   UNL     1      15.817  -4.879  -5.986  0.00  0.00    +0.000 C 
BRANCH  25  26
ATOM     26  C   UNL     1      14.889  -3.873  -6.609  0.00  0.00    +0.000 C 
ATOM     27  C   UNL     1      15.130  -3.196  -7.734  0.00  0.00    +0.000 C 
ATOM     28  C   UNL     1      16.413  -3.354  -8.479  0.00  0.00    +0.000 C 
ATOM     29  C   UNL     1      14.090  -2.247  -8.253  0.00  0.00    +0.000 C 
ENDBRANCH  25  26
ENDBRANCH  21  25
ENDBRANCH  14  17
ENDBRANCH   9  13
BRANCH   8  30
ATOM     30  O   UNL     1       9.124  -5.666  -4.968  0.00  0.00    +0.000 OA
ATOM     31  H   UNL     1       8.259  -5.784  -5.398  0.00  0.00    +0.000 HD
ENDBRANCH   8  30
BRANCH   1  32
ATOM     32  O   UNL     1       3.730  -3.897  -1.696  0.00  0.00    +0.000 OA
BRANCH  32  36
ATOM     33  C   UNL     1       2.633  -0.828   1.087  0.00  0.00    +0.000 C 
ATOM     34  C   UNL     1       4.113  -0.909   0.809  0.00  0.00    +0.000 C 
ATOM     35  C   UNL     1       4.245  -1.652  -0.551  0.00  0.00    +0.000 C 
ATOM     36  C   UNL     1       3.586  -3.113  -0.488  0.00  0.00    +0.000 C 
ATOM     37  O   UNL     1       2.177  -2.940  -0.129  0.00  0.00    +0.000 OA
ATOM     38  C   UNL     1       2.009  -2.265   1.141  0.00  0.00    +0.000 C 
ATOM     39  C   UNL     1       2.599  -3.106   2.306  0.00  0.00    +0.000 C 
ATOM     40  C   UNL     1       0.514  -2.198   1.505  0.00  0.00    +0.000 C 
BRANCH  33  42
ATOM     41  C   UNL     1       0.871   0.154  -0.204  0.00  0.00    +0.000 C 
ATOM     42  O   UNL     1       2.245   0.075   0.037  0.00  0.00    +0.000 OA
ENDBRANCH  33  42
BRANCH  35  43
ATOM     43  O   UNL     1       5.613  -1.437  -0.908  0.00  0.00    +0.000 OA
ATOM     44  H   UNL     1       6.087  -1.313  -0.058  0.00  0.00    +0.000 HD
ENDBRANCH  35  43
BRANCH  34  45
ATOM     45  O   UNL     1       4.918  -1.536   1.844  0.00  0.00    +0.000 OA
BRANCH  45  46
ATOM     46  C   UNL     1       4.928  -1.142   3.146  0.00  0.00    +0.000 C 
ATOM     47  N   UNL     1       4.347   0.052   3.412  0.00  0.00    +0.000 N 
ATOM     48  O   UNL     1       5.400  -1.833   4.036  0.00  0.00    +0.000 OA
ATOM     49  H   UNL     1       4.026   0.695   2.708  0.00  0.00    +0.000 HD
ATOM     50  H   UNL     1       4.327   0.355   4.376  0.00  0.00    +0.000 HD
ENDBRANCH  45  46
ENDBRANCH  34  45
ENDBRANCH  32  36
ENDBRANCH   1  32
TORSDOF 12
