REMARK  Name = Noxytiolin
REMARK  5 active torsions:
REMARK  status: ('A' for Active; 'I' for Inactive)
REMARK    1  A    between atoms: C_1  and  N_2
REMARK    2  A    between atoms: N_2  and  C_3
REMARK    3  A    between atoms: C_3  and  N_5
REMARK    4  A    between atoms: N_5  and  C_6
REMARK    5  A    between atoms: C_6  and  O_7
REMARK                            x       y       z     vdW  Elec       q    Type
REMARK                         _______ _______ _______ _____ _____    ______ ____
ROOT
ATOM      1  C   UNL     1       3.080   0.307   1.296  0.00  0.00    +0.000 C 
ATOM      2  S   UNL     1       2.238   0.630   2.711  0.00  0.00    +0.000 S 
ENDROOT
BRANCH   1   4
ATOM      3  C   UNL     1       1.025   0.005  -0.094  0.00  0.00    +0.000 C 
ATOM      4  N   UNL     1       2.469   0.039   0.087  0.00  0.00    +0.000 N 
ATOM      5  H   UNL     1       3.038  -0.140  -0.727  0.00  0.00    +0.000 HD
ENDBRANCH   1   4
BRANCH   1   6
ATOM      6  N   UNL     1       4.458   0.250   1.219  0.00  0.00    +0.000 N 
ATOM      7  H   UNL     1       4.913   0.197   0.325  0.00  0.00    +0.000 HD
BRANCH   6   8
ATOM      8  C   UNL     1       5.313   0.566   2.333  0.00  0.00    +0.000 C 
BRANCH   8   9
ATOM      9  O   UNL     1       6.637   0.500   1.862  0.00  0.00    +0.000 OA
ATOM     10  H   UNL     1       6.874  -0.441   1.863  0.00  0.00    +0.000 HD
ENDBRANCH   8   9
ENDBRANCH   6   8
ENDBRANCH   1   6
TORSDOF 4
