REMARK  Name = Nylidrin
REMARK  11 active torsions:
REMARK  status: ('A' for Active; 'I' for Inactive)
REMARK    1  A    between atoms: C_1  and  C_2
REMARK    2  A    between atoms: C_2  and  C_3
REMARK    3  A    between atoms: C_2  and  N_11
REMARK    4  A    between atoms: C_3  and  C_4
REMARK    5  A    between atoms: C_4  and  C_5
REMARK    6  A    between atoms: N_11  and  C_12
REMARK    7  A    between atoms: C_12  and  C_13
REMARK    8  A    between atoms: C_12  and  C_14
REMARK    9  A    between atoms: C_14  and  O_15
REMARK   10  A    between atoms: C_14  and  C_16
REMARK   11  A    between atoms: C_19  and  O_20
REMARK                            x       y       z     vdW  Elec       q    Type
REMARK                         _______ _______ _______ _____ _____    ______ ____
ROOT
ATOM      1  C   UNL     1       4.630   0.455  -1.312  0.00  0.00    +0.000 C 
ATOM      2  C   UNL     1       5.297  -0.916  -1.156  0.00  0.00    +0.000 C 
ENDROOT
BRANCH   1   3
ATOM      3  N   UNL     1       3.137   0.407  -1.263  0.00  0.00    +0.000 NA
ATOM      4  H   UNL     1       2.785   1.341  -1.503  0.00  0.00    +0.000 HD
BRANCH   3   6
ATOM      5  C   UNL     1       1.003   0.082  -0.083  0.00  0.00    +0.000 C 
ATOM      6  C   UNL     1       2.526  -0.045   0.003  0.00  0.00    +0.000 C 
BRANCH   6   7
ATOM      7  C   UNL     1       2.845  -1.507   0.296  0.00  0.00    +0.000 C 
BRANCH   7   8
ATOM      8  C   UNL     1       2.372  -2.076   1.609  0.00  0.00    +0.000 C 
BRANCH   8   9
ATOM      9  C   UNL     1       2.971  -3.452   1.775  0.00  0.00    +0.000 A 
ATOM     10  C   UNL     1       2.370  -4.540   1.135  0.00  0.00    +0.000 A 
ATOM     11  C   UNL     1       2.807  -5.832   1.402  0.00  0.00    +0.000 A 
ATOM     12  C   UNL     1       3.907  -6.037   2.234  0.00  0.00    +0.000 A 
ATOM     13  C   UNL     1       4.588  -4.949   2.777  0.00  0.00    +0.000 A 
ATOM     14  C   UNL     1       4.127  -3.655   2.543  0.00  0.00    +0.000 A 
ENDBRANCH   8   9
ENDBRANCH   7   8
ENDBRANCH   6   7
ENDBRANCH   3   6
ENDBRANCH   1   3
BRANCH   1  15
ATOM     15  C   UNL     1       5.105   1.084  -2.682  0.00  0.00    +0.000 C 
BRANCH  15  16
ATOM     16  C   UNL     1       6.627   1.127  -2.838  0.00  0.00    +0.000 A 
ATOM     17  C   UNL     1       7.370   2.298  -2.708  0.00  0.00    +0.000 A 
ATOM     18  C   UNL     1       8.767   2.273  -2.817  0.00  0.00    +0.000 A 
ATOM     19  C   UNL     1       9.429   1.048  -2.921  0.00  0.00    +0.000 A 
ATOM     20  C   UNL     1       8.726  -0.126  -3.017  0.00  0.00    +0.000 A 
ATOM     21  C   UNL     1       7.337  -0.076  -3.078  0.00  0.00    +0.000 A 
BRANCH  19  22
ATOM     22  O   UNL     1      10.790   0.975  -2.948  0.00  0.00    +0.000 OA
ATOM     23  H   UNL     1      11.145   1.870  -2.866  0.00  0.00    +0.000 HD
ENDBRANCH  19  22
ENDBRANCH  15  16
BRANCH  15  24
ATOM     24  O   UNL     1       4.538   2.397  -2.828  0.00  0.00    +0.000 OA
ATOM     25  H   UNL     1       4.806   2.911  -2.051  0.00  0.00    +0.000 HD
ENDBRANCH  15  24
ENDBRANCH   1  15
TORSDOF 9
