REMARK  Name = Obeticholic acid
REMARK  12 active torsions:
REMARK  status: ('A' for Active; 'I' for Inactive)
REMARK    1  A    between atoms: C_2  and  C_29
REMARK    2  A    between atoms: C_9  and  O_10
REMARK    3  A    between atoms: C_11  and  C_12
REMARK    4  A    between atoms: C_12  and  C_13
REMARK    5  A    between atoms: C_17  and  O_18
REMARK    6  A    between atoms: C_21  and  C_22
REMARK    7  A    between atoms: C_27  and  C_28
REMARK    8  A    between atoms: C_29  and  C_30
REMARK    9  A    between atoms: C_29  and  C_31
REMARK   10  A    between atoms: C_31  and  C_32
REMARK   11  A    between atoms: C_32  and  C_33
REMARK   12  A    between atoms: C_33  and  O_34
REMARK                            x       y       z     vdW  Elec       q    Type
REMARK                         _______ _______ _______ _____ _____    ______ ____
ROOT
ATOM      1  C   UNL     1       3.691   0.208  -0.157  0.00  0.00    +0.000 C 
ATOM      2  C   UNL     1       3.473  -1.102  -0.681  0.00  0.00    +0.000 C 
ATOM      3  C   UNL     1       4.331  -1.007   0.765  0.00  0.00    +0.000 C 
ATOM      4  C   UNL     1       5.255  -1.889   0.150  0.00  0.00    +0.000 C 
ATOM      5  C   UNL     1       5.210  -3.109   1.016  0.00  0.00    +0.000 C 
ATOM      6  C   UNL     1       3.821  -3.657   0.723  0.00  0.00    +0.000 C 
ATOM      7  C   UNL     1       3.670  -4.864   1.503  0.00  0.00    +0.000 C 
ATOM      8  C   UNL     1       4.694  -5.800   0.870  0.00  0.00    +0.000 C 
ATOM      9  C   UNL     1       4.420  -6.956   1.577  0.00  0.00    +0.000 C 
ATOM     10  C   UNL     1       3.297  -7.735   1.885  0.00  0.00    +0.000 C 
ATOM     11  C   UNL     1       4.718  -8.086   2.949  0.00  0.00    +0.000 C 
ATOM     12  C   UNL     1       6.169  -6.642   2.777  0.00  0.00    +0.000 C 
ATOM     13  C   UNL     1       6.163  -5.665   1.244  0.00  0.00    +0.000 C 
ATOM     14  C   UNL     1       7.279  -6.476   0.622  0.00  0.00    +0.000 C 
ATOM     15  C   UNL     1       6.297  -4.148   0.678  0.00  0.00    +0.000 C 
ATOM     16  C   UNL     1       7.503  -3.294   0.806  0.00  0.00    +0.000 C 
ATOM     17  C   UNL     1       7.172  -1.868  -0.140  0.00  0.00    +0.000 C 
ATOM     18  C   UNL     1       5.778  -0.510   0.073  0.00  0.00    +0.000 C 
ATOM     19  C   UNL     1       7.197   0.097   0.985  0.00  0.00    +0.000 C 
ENDROOT
BRANCH   6  20
ATOM     20  O   UNL     1       2.695  -2.907   1.161  0.00  0.00    +0.000 OA
ATOM     21  H   UNL     1       2.905  -2.526   2.028  0.00  0.00    +0.000 HD
ENDBRANCH   6  20
BRANCH   7  22
ATOM     22  C   UNL     1       3.541  -4.431   3.089  0.00  0.00    +0.000 C 
ATOM     23  C   UNL     1       3.939  -5.322   4.239  0.00  0.00    +0.000 C 
ENDBRANCH   7  22
BRANCH  10  24
ATOM     24  O   UNL     1       2.152  -7.000   2.295  0.00  0.00    +0.000 OA
ATOM     25  H   UNL     1       2.198  -6.497   3.119  0.00  0.00    +0.000 HD
ENDBRANCH  10  24
BRANCH   1  26
ATOM     26  C   UNL     1       1.927   0.988   0.297  0.00  0.00    +0.000 C 
ATOM     27  C   UNL     1       0.927   1.488  -0.962  0.00  0.00    +0.000 C 
BRANCH  26  28
ATOM     28  C   UNL     1       1.426   2.080   1.403  0.00  0.00    +0.000 C 
BRANCH  28  29
ATOM     29  C   UNL     1       2.115   3.345   1.047  0.00  0.00    +0.000 C 
BRANCH  29  30
ATOM     30  C   UNL     1       2.082   4.442   2.059  0.00  0.00    +0.000 C 
ATOM     31  O   UNL     1       2.769   5.443   1.896  0.00  0.00    +0.000 OA
BRANCH  30  32
ATOM     32  O   UNL     1       1.275   4.312   3.129  0.00  0.00    +0.000 OA
ATOM     33  H   UNL     1       0.723   3.514   3.222  0.00  0.00    +0.000 HD
ENDBRANCH  30  32
ENDBRANCH  29  30
ENDBRANCH  28  29
ENDBRANCH  26  28
ENDBRANCH   1  26
TORSDOF 8
