REMARK  Name = Octasulfur
REMARK  0 active torsions:
REMARK  status: ('A' for Active; 'I' for Inactive)
REMARK                            x       y       z     vdW  Elec       q    Type
REMARK                         _______ _______ _______ _____ _____    ______ ____
ROOT
ATOM      1  S   UNL     1      -1.744   0.001   1.087  0.00  0.00    +0.000 S 
ATOM      2  S   UNL     1      -1.823  -1.654  -0.109  0.00  0.00    +0.000 S 
ATOM      3  S   UNL     1       0.028  -1.872  -0.974  0.00  0.00    +0.000 S 
ATOM      4  S   UNL     1       1.415  -1.675   0.529  0.00  0.00    +0.000 S 
ATOM      5  S   UNL     1       2.497  -0.002   0.021  0.00  0.00    +0.000 S 
ATOM      6  S   UNL     1       1.417   1.673   0.528  0.00  0.00    +0.000 S 
ATOM      7  S   UNL     1       0.031   1.872  -0.974  0.00  0.00    +0.000 S 
ATOM      8  S   UNL     1      -1.820   1.657  -0.109  0.00  0.00    +0.000 S 
ENDROOT
TORSDOF 0
