REMARK  Name = Octisalate
REMARK  11 active torsions:
REMARK  status: ('A' for Active; 'I' for Inactive)
REMARK    1  A    between atoms: C_1  and  C_2
REMARK    2  A    between atoms: C_2  and  C_3
REMARK    3  A    between atoms: C_3  and  C_4
REMARK    4  A    between atoms: C_4  and  C_5
REMARK    5  A    between atoms: C_5  and  C_6
REMARK    6  A    between atoms: C_5  and  C_8
REMARK    7  A    between atoms: C_6  and  C_7
REMARK    8  A    between atoms: C_8  and  O_9
REMARK    9  A    between atoms: O_9  and  C_10
REMARK   10  A    between atoms: C_10  and  C_12
REMARK   11  A    between atoms: C_13  and  O_14
REMARK                            x       y       z     vdW  Elec       q    Type
REMARK                         _______ _______ _______ _____ _____    ______ ____
ROOT
ATOM      1  C   UNL     1       8.526   4.373   0.331  0.00  0.00    +0.000 C 
ATOM      2  O   UNL     1       9.320   3.465   0.182  0.00  0.00    +0.000 OA
ENDROOT
BRANCH   1   3
ATOM      3  C   UNL     1       8.942   5.801   0.460  0.00  0.00    +0.000 A 
ATOM      4  C   UNL     1       8.388   6.696   1.384  0.00  0.00    +0.000 A 
ATOM      5  C   UNL     1       8.861   8.012   1.469  0.00  0.00    +0.000 A 
ATOM      6  C   UNL     1       9.900   8.447   0.646  0.00  0.00    +0.000 A 
ATOM      7  C   UNL     1      10.476   7.561  -0.261  0.00  0.00    +0.000 A 
ATOM      8  C   UNL     1      10.004   6.244  -0.350  0.00  0.00    +0.000 A 
BRANCH   4   9
ATOM      9  O   UNL     1       7.408   6.368   2.279  0.00  0.00    +0.000 OA
ATOM     10  H   UNL     1       7.136   5.445   2.131  0.00  0.00    +0.000 HD
ENDBRANCH   4   9
ENDBRANCH   1   3
BRANCH   1  11
ATOM     11  O   UNL     1       7.166   4.242   0.370  0.00  0.00    +0.000 OA
BRANCH  11  12
ATOM     12  C   UNL     1       6.677   2.883   0.206  0.00  0.00    +0.000 C 
BRANCH  12  13
ATOM     13  C   UNL     1       5.119   2.839   0.219  0.00  0.00    +0.000 C 
BRANCH  13  14
ATOM     14  C   UNL     1       4.604   3.486   1.532  0.00  0.00    +0.000 C 
ATOM     15  C   UNL     1       3.100   3.702   1.661  0.00  0.00    +0.000 C 
ENDBRANCH  13  14
BRANCH  13  16
ATOM     16  C   UNL     1       4.639   1.372   0.019  0.00  0.00    +0.000 C 
BRANCH  16  17
ATOM     17  C   UNL     1       3.125   1.231  -0.090  0.00  0.00    +0.000 C 
BRANCH  17  19
ATOM     18  C   UNL     1       1.059  -0.112  -0.131  0.00  0.00    +0.000 C 
ATOM     19  C   UNL     1       2.584  -0.178  -0.206  0.00  0.00    +0.000 C 
ENDBRANCH  17  19
ENDBRANCH  16  17
ENDBRANCH  13  16
ENDBRANCH  12  13
ENDBRANCH  11  12
ENDBRANCH   1  11
TORSDOF 9
