REMARK  Name = Octinoxate
REMARK  13 active torsions:
REMARK  status: ('A' for Active; 'I' for Inactive)
REMARK    1  A    between atoms: C_2  and  C_13
REMARK    2  A    between atoms: C_3  and  C_5
REMARK    3  A    between atoms: C_8  and  O_9
REMARK    4  A    between atoms: O_9  and  C_10
REMARK    5  A    between atoms: C_13  and  O_15
REMARK    6  A    between atoms: O_15  and  C_16
REMARK    7  A    between atoms: C_16  and  C_17
REMARK    8  A    between atoms: C_17  and  C_18
REMARK    9  A    between atoms: C_17  and  C_20
REMARK   10  A    between atoms: C_18  and  C_19
REMARK   11  A    between atoms: C_20  and  C_21
REMARK   12  A    between atoms: C_21  and  C_22
REMARK   13  A    between atoms: C_22  and  C_23
REMARK                            x       y       z     vdW  Elec       q    Type
REMARK                         _______ _______ _______ _____ _____    ______ ____
ROOT
ATOM      1  C   UNL     1       2.875   0.189   1.429  0.00  0.00    +0.000 C 
ATOM      2  O   UNL     1       2.231   0.532   2.416  0.00  0.00    +0.000 OA
ENDROOT
BRANCH   1   3
ATOM      3  C   UNL     1       2.214  -0.081   0.127  0.00  0.00    +0.000 C 
ATOM      4  C   UNL     1       2.813  -0.350  -1.047  0.00  0.00    +0.000 C 
BRANCH   4   5
ATOM      5  C   UNL     1       2.069  -0.567  -2.304  0.00  0.00    +0.000 A 
ATOM      6  C   UNL     1       2.462  -1.564  -3.208  0.00  0.00    +0.000 A 
ATOM      7  C   UNL     1       1.817  -1.700  -4.450  0.00  0.00    +0.000 A 
ATOM      8  C   UNL     1       0.724  -0.894  -4.778  0.00  0.00    +0.000 A 
ATOM      9  C   UNL     1       0.337   0.103  -3.887  0.00  0.00    +0.000 A 
ATOM     10  C   UNL     1       1.008   0.269  -2.669  0.00  0.00    +0.000 A 
BRANCH   8  11
ATOM     11  O   UNL     1       0.108  -1.169  -5.970  0.00  0.00    +0.000 OA
ATOM     12  C   UNL     1      -1.089  -0.442  -6.246  0.00  0.00    +0.000 C 
ENDBRANCH   8  11
ENDBRANCH   4   5
ENDBRANCH   1   3
BRANCH   1  13
ATOM     13  O   UNL     1       4.216   0.027   1.384  0.00  0.00    +0.000 OA
BRANCH  13  14
ATOM     14  C   UNL     1       4.954   0.445   2.553  0.00  0.00    +0.000 C 
BRANCH  14  15
ATOM     15  C   UNL     1       6.473   0.454   2.251  0.00  0.00    +0.000 C 
BRANCH  15  16
ATOM     16  C   UNL     1       6.852   1.497   1.174  0.00  0.00    +0.000 C 
ATOM     17  C   UNL     1       6.179   1.280  -0.164  0.00  0.00    +0.000 C 
ENDBRANCH  15  16
BRANCH  15  18
ATOM     18  C   UNL     1       7.273   0.719   3.546  0.00  0.00    +0.000 C 
BRANCH  18  19
ATOM     19  C   UNL     1       8.787   0.656   3.324  0.00  0.00    +0.000 C 
BRANCH  19  20
ATOM     20  C   UNL     1       9.562   0.933   4.603  0.00  0.00    +0.000 C 
ATOM     21  C   UNL     1      11.056   0.884   4.327  0.00  0.00    +0.000 C 
ENDBRANCH  19  20
ENDBRANCH  18  19
ENDBRANCH  15  18
ENDBRANCH  14  15
ENDBRANCH  13  14
ENDBRANCH   1  13
TORSDOF 10
