REMARK  Name = Octocrylene
REMARK  13 active torsions:
REMARK  status: ('A' for Active; 'I' for Inactive)
REMARK    1  A    between atoms: C_1  and  C_2
REMARK    2  A    between atoms: C_2  and  C_3
REMARK    3  A    between atoms: C_3  and  C_4
REMARK    4  A    between atoms: C_4  and  C_5
REMARK    5  A    between atoms: C_5  and  C_6
REMARK    6  A    between atoms: C_5  and  C_8
REMARK    7  A    between atoms: C_6  and  C_7
REMARK    8  A    between atoms: C_8  and  O_9
REMARK    9  A    between atoms: O_9  and  C_10
REMARK   10  A    between atoms: C_10  and  C_12
REMARK   11  A    between atoms: C_12  and  C_13
REMARK   12  A    between atoms: C_15  and  C_16
REMARK   13  A    between atoms: C_15  and  C_22
REMARK                            x       y       z     vdW  Elec       q    Type
REMARK                         _______ _______ _______ _____ _____    ______ ____
ROOT
ATOM      1  C   UNL     1       8.910   1.406  -5.642  0.00  0.00    +0.000 C 
ATOM      2  C   UNL     1      10.251   1.444  -5.888  0.00  0.00    +0.000 C 
ENDROOT
BRANCH   2   3
ATOM      3  C   UNL     1      11.263   1.131  -4.827  0.00  0.00    +0.000 A 
ATOM      4  C   UNL     1      12.387   1.951  -4.651  0.00  0.00    +0.000 A 
ATOM      5  C   UNL     1      13.383   1.594  -3.738  0.00  0.00    +0.000 A 
ATOM      6  C   UNL     1      13.204   0.496  -2.899  0.00  0.00    +0.000 A 
ATOM      7  C   UNL     1      12.078  -0.305  -3.037  0.00  0.00    +0.000 A 
ATOM      8  C   UNL     1      11.158  -0.030  -4.044  0.00  0.00    +0.000 A 
ENDBRANCH   2   3
BRANCH   2   9
ATOM      9  C   UNL     1      10.729   1.806  -7.263  0.00  0.00    +0.000 A 
ATOM     10  C   UNL     1      11.767   1.077  -7.861  0.00  0.00    +0.000 A 
ATOM     11  C   UNL     1      12.295   1.481  -9.089  0.00  0.00    +0.000 A 
ATOM     12  C   UNL     1      11.723   2.546  -9.781  0.00  0.00    +0.000 A 
ATOM     13  C   UNL     1      10.679   3.264  -9.213  0.00  0.00    +0.000 A 
ATOM     14  C   UNL     1      10.225   2.927  -7.943  0.00  0.00    +0.000 A 
ENDBRANCH   2   9
BRANCH   1  15
ATOM     15  C   UNL     1       8.341   1.199  -4.236  0.00  0.00    +0.000 C 
ATOM     16  O   UNL     1       9.001   1.231  -3.216  0.00  0.00    +0.000 OA
BRANCH  15  17
ATOM     17  O   UNL     1       6.992   0.963  -4.179  0.00  0.00    +0.000 OA
BRANCH  17  18
ATOM     18  C   UNL     1       6.530   0.703  -2.815  0.00  0.00    +0.000 C 
BRANCH  18  19
ATOM     19  C   UNL     1       4.987   0.719  -2.725  0.00  0.00    +0.000 C 
BRANCH  19  20
ATOM     20  C   UNL     1       4.489   2.120  -3.162  0.00  0.00    +0.000 C 
ATOM     21  C   UNL     1       2.989   2.284  -3.357  0.00  0.00    +0.000 C 
ENDBRANCH  19  20
BRANCH  19  22
ATOM     22  C   UNL     1       4.533   0.313  -1.291  0.00  0.00    +0.000 C 
BRANCH  22  23
ATOM     23  C   UNL     1       3.020   0.185  -1.161  0.00  0.00    +0.000 C 
BRANCH  23  25
ATOM     24  C   UNL     1       0.957  -0.053   0.162  0.00  0.00    +0.000 C 
ATOM     25  C   UNL     1       2.483  -0.137   0.216  0.00  0.00    +0.000 C 
ENDBRANCH  23  25
ENDBRANCH  22  23
ENDBRANCH  19  22
ENDBRANCH  18  19
ENDBRANCH  17  18
ENDBRANCH  15  17
ENDBRANCH   1  15
BRANCH   1  26
ATOM     26  C   UNL     1       7.922   1.678  -6.765  0.00  0.00    +0.000 C 
ATOM     27  N   UNL     1       7.103   1.903  -7.696  0.00  0.00    +0.000 NA
ENDBRANCH   1  26
TORSDOF 11
