REMARK  Name = Ofloxacin
REMARK  5 active torsions:
REMARK  status: ('A' for Active; 'I' for Inactive)
REMARK    1  A    between atoms: C_1  and  C_2
REMARK    2  A    between atoms: C_9  and  C_10
REMARK    3  A    between atoms: C_10  and  O_11
REMARK    4  A    between atoms: C_19  and  N_20
REMARK    5  A    between atoms: N_23  and  C_24
REMARK                            x       y       z     vdW  Elec       q    Type
REMARK                         _______ _______ _______ _____ _____    ______ ____
ROOT
ATOM      1  C   UNL     1       1.001  -0.048  -0.033  0.00  0.00    +0.000 C 
ATOM      2  C   UNL     1       2.536  -0.082  -0.067  0.00  0.00    +0.000 C 
ATOM      3  C   UNL     1       3.006   1.227  -0.721  0.00  0.00    +0.000 C 
ATOM      4  O   UNL     1       3.905   1.205  -1.813  0.00  0.00    +0.000 OA
ATOM      5  C   UNL     1       4.230   0.004  -2.370  0.00  0.00    +0.000 A 
ATOM      6  C   UNL     1       3.812  -1.226  -1.834  0.00  0.00    +0.000 A 
ATOM      7  N   UNL     1       2.995  -1.330  -0.695  0.00  0.00    +0.000 N 
ATOM      8  C   UNL     1       2.667  -2.589  -0.198  0.00  0.00    +0.000 A 
ATOM      9  C   UNL     1       3.022  -3.773  -0.722  0.00  0.00    +0.000 A 
ATOM     10  C   UNL     1       3.863  -3.729  -1.931  0.00  0.00    +0.000 A 
ATOM     11  O   UNL     1       4.233  -4.776  -2.458  0.00  0.00    +0.000 OA
ATOM     12  C   UNL     1       4.246  -2.406  -2.475  0.00  0.00    +0.000 A 
ATOM     13  C   UNL     1       5.039  -2.371  -3.617  0.00  0.00    +0.000 A 
ATOM     14  C   UNL     1       5.402  -1.144  -4.141  0.00  0.00    +0.000 A 
ATOM     15  F   UNL     1       6.182  -1.136  -5.235  0.00  0.00    +0.000 F 
ATOM     16  C   UNL     1       5.025   0.071  -3.544  0.00  0.00    +0.000 A 
ENDROOT
BRANCH  16  17
ATOM     17  N   UNL     1       5.452   1.259  -4.110  0.00  0.00    +0.000 N 
ATOM     18  C   UNL     1       5.043   1.622  -5.471  0.00  0.00    +0.000 C 
ATOM     19  C   UNL     1       6.247   2.194  -6.249  0.00  0.00    +0.000 C 
ATOM     20  N   UNL     1       6.857   3.339  -5.533  0.00  0.00    +0.000 NA
ATOM     21  C   UNL     1       7.953   3.908  -6.307  0.00  0.00    +0.000 C 
ATOM     22  C   UNL     1       7.331   2.849  -4.215  0.00  0.00    +0.000 C 
ATOM     23  C   UNL     1       6.172   2.283  -3.350  0.00  0.00    +0.000 C 
ENDBRANCH  16  17
BRANCH   9  24
ATOM     24  C   UNL     1       2.568  -5.030  -0.091  0.00  0.00    +0.000 C 
ATOM     25  O   UNL     1       1.858  -5.059   0.907  0.00  0.00    +0.000 OA
BRANCH  24  26
ATOM     26  O   UNL     1       2.991  -6.159  -0.699  0.00  0.00    +0.000 OA
ATOM     27  H   UNL     1       3.555  -6.007  -1.497  0.00  0.00    +0.000 HD
ENDBRANCH  24  26
ENDBRANCH   9  24
TORSDOF 3
