REMARK  Name = Oftasceine
REMARK  18 active torsions:
REMARK  status: ('A' for Active; 'I' for Inactive)
REMARK    1  A    between atoms: O_1  and  C_2
REMARK    2  A    between atoms: C_2  and  C_4
REMARK    3  A    between atoms: C_4  and  N_5
REMARK    4  A    between atoms: N_5  and  C_6
REMARK    5  A    between atoms: N_5  and  C_10
REMARK    6  A    between atoms: C_6  and  C_7
REMARK    7  A    between atoms: C_7  and  O_8
REMARK    8  A    between atoms: C_10  and  C_11
REMARK    9  A    between atoms: C_18  and  O_19
REMARK   10  A    between atoms: C_20  and  C_21
REMARK   11  A    between atoms: C_21  and  N_22
REMARK   12  A    between atoms: N_22  and  C_23
REMARK   13  A    between atoms: N_22  and  C_27
REMARK   14  A    between atoms: C_23  and  C_24
REMARK   15  A    between atoms: C_24  and  O_25
REMARK   16  A    between atoms: C_27  and  C_28
REMARK   17  A    between atoms: C_28  and  O_29
REMARK   18  A    between atoms: C_44  and  O_45
REMARK                            x       y       z     vdW  Elec       q    Type
REMARK                         _______ _______ _______ _____ _____    ______ ____
ROOT
ATOM      1  C   UNL     1       6.900   1.905  -0.076  0.00  0.00    +0.000 A 
ATOM      2  C   UNL     1       7.762   3.016   0.004  0.00  0.00    +0.000 A 
ATOM      3  C   UNL     1       9.155   2.843  -0.008  0.00  0.00    +0.000 A 
ATOM      4  C   UNL     1       9.654   1.560  -0.239  0.00  0.00    +0.000 A 
ATOM      5  O   UNL     1      10.971   1.254  -0.323  0.00  0.00    +0.000 OA
ATOM      6  C   UNL     1      11.835   2.184   0.143  0.00  0.00    +0.000 A 
ATOM      7  C   UNL     1      13.049   1.675   0.499  0.00  0.00    +0.000 A 
ATOM      8  C   UNL     1      13.957   2.520   1.102  0.00  0.00    +0.000 A 
ATOM      9  C   UNL     1      13.876   3.901   0.887  0.00  0.00    +0.000 A 
ATOM     10  C   UNL     1      12.608   4.412   0.615  0.00  0.00    +0.000 A 
ATOM     11  C   UNL     1      11.551   3.530   0.327  0.00  0.00    +0.000 A 
ATOM     12  C   UNL     1      10.121   3.979   0.251  0.00  0.00    +0.000 C 
ATOM     13  O   UNL     1       9.815   4.527   1.565  0.00  0.00    +0.000 OA
ATOM     14  C   UNL     1       9.472   5.843   1.510  0.00  0.00    +0.000 C 
ATOM     15  O   UNL     1       9.188   6.557   2.451  0.00  0.00    +0.000 OA
ATOM     16  C   UNL     1       9.520   6.229   0.105  0.00  0.00    +0.000 A 
ATOM     17  C   UNL     1       9.237   7.451  -0.470  0.00  0.00    +0.000 A 
ATOM     18  C   UNL     1       9.394   7.560  -1.854  0.00  0.00    +0.000 A 
ATOM     19  C   UNL     1       9.850   6.471  -2.617  0.00  0.00    +0.000 A 
ATOM     20  C   UNL     1      10.126   5.247  -2.013  0.00  0.00    +0.000 A 
ATOM     21  C   UNL     1       9.930   5.145  -0.646  0.00  0.00    +0.000 A 
ATOM     22  C   UNL     1       8.839   0.457  -0.326  0.00  0.00    +0.000 A 
ATOM     23  C   UNL     1       7.498   0.636  -0.110  0.00  0.00    +0.000 A 
ENDROOT
BRANCH   8  24
ATOM     24  O   UNL     1      15.130   1.946   1.543  0.00  0.00    +0.000 OA
ATOM     25  H   UNL     1      15.293   1.150   0.977  0.00  0.00    +0.000 HD
ENDBRANCH   8  24
BRANCH  23  26
ATOM     26  O   UNL     1       6.813  -0.505   0.166  0.00  0.00    +0.000 OA
ATOM     27  H   UNL     1       7.047  -1.190  -0.486  0.00  0.00    +0.000 HD
ENDBRANCH  23  26
BRANCH   1  28
ATOM     28  C   UNL     1       5.397   2.155  -0.186  0.00  0.00    +0.000 C 
BRANCH  28  29
ATOM     29  N   UNL     1       4.510   0.951  -0.194  0.00  0.00    +0.000 NA
BRANCH  29  30
ATOM     30  C   UNL     1       4.775   0.147  -1.427  0.00  0.00    +0.000 C 
BRANCH  30  31
ATOM     31  C   UNL     1       4.504  -1.357  -1.290  0.00  0.00    +0.000 C 
ATOM     32  O   UNL     1       4.498  -2.100  -2.263  0.00  0.00    +0.000 OA
BRANCH  31  33
ATOM     33  O   UNL     1       4.474  -1.864  -0.040  0.00  0.00    +0.000 OA
ATOM     34  H   UNL     1       4.054  -1.216   0.580  0.00  0.00    +0.000 HD
ENDBRANCH  31  33
ENDBRANCH  30  31
ENDBRANCH  29  30
BRANCH  29  35
ATOM     35  C   UNL     1       3.072   1.358  -0.137  0.00  0.00    +0.000 C 
BRANCH  35  36
ATOM     36  C   UNL     1       2.114   0.175   0.113  0.00  0.00    +0.000 C 
ATOM     37  O   UNL     1       2.454  -0.886   0.613  0.00  0.00    +0.000 OA
BRANCH  36  38
ATOM     38  O   UNL     1       0.815   0.366  -0.176  0.00  0.00    +0.000 OA
ATOM     39  H   UNL     1       0.502   1.284  -0.212  0.00  0.00    +0.000 HD
ENDBRANCH  36  38
ENDBRANCH  35  36
ENDBRANCH  29  35
ENDBRANCH  28  29
ENDBRANCH   1  28
BRANCH   9  40
ATOM     40  C   UNL     1      15.089   4.824   0.846  0.00  0.00    +0.000 C 
BRANCH  40  41
ATOM     41  N   UNL     1      16.403   4.142   0.508  0.00  0.00    +0.000 NA
BRANCH  41  42
ATOM     42  C   UNL     1      16.650   3.912  -0.989  0.00  0.00    +0.000 C 
BRANCH  42  43
ATOM     43  C   UNL     1      15.859   2.792  -1.651  0.00  0.00    +0.000 C 
ATOM     44  O   UNL     1      15.731   2.556  -2.859  0.00  0.00    +0.000 OA
BRANCH  43  45
ATOM     45  O   UNL     1      15.541   1.891  -0.735  0.00  0.00    +0.000 OA
ATOM     46  H   UNL     1      15.661   2.484   0.059  0.00  0.00    +0.000 HD
ENDBRANCH  43  45
ENDBRANCH  42  43
ENDBRANCH  41  42
BRANCH  41  47
ATOM     47  C   UNL     1      17.490   5.085   0.985  0.00  0.00    +0.000 C 
BRANCH  47  48
ATOM     48  C   UNL     1      18.894   4.468   1.009  0.00  0.00    +0.000 C 
ATOM     49  O   UNL     1      19.905   5.141   1.165  0.00  0.00    +0.000 OA
BRANCH  48  50
ATOM     50  O   UNL     1      18.959   3.126   0.855  0.00  0.00    +0.000 OA
ATOM     51  H   UNL     1      18.076   2.707   0.832  0.00  0.00    +0.000 HD
ENDBRANCH  48  50
ENDBRANCH  47  48
ENDBRANCH  41  47
ENDBRANCH  40  41
ENDBRANCH   9  40
TORSDOF 18
