REMARK  Name = Olanzapine
REMARK  2 active torsions:
REMARK  status: ('A' for Active; 'I' for Inactive)
REMARK    1  A    between atoms: C_1  and  N_2
REMARK    2  A    between atoms: C_20  and  C_21
REMARK                            x       y       z     vdW  Elec       q    Type
REMARK                         _______ _______ _______ _____ _____    ______ ____
ROOT
ATOM      1  C   UNL     1       2.443   0.002   0.058  0.00  0.00    +0.000 C 
ATOM      2  N   UNL     1       1.029  -0.003  -0.295  0.00  0.00    +0.000 NA
ATOM      3  C   UNL     1       0.343   1.203   0.228  0.00  0.00    +0.000 C 
ATOM      4  C   UNL     1      -1.156   1.228  -0.160  0.00  0.00    +0.000 C 
ATOM      5  N   UNL     1      -1.786   0.003   0.333  0.00  0.00    +0.000 N 
ATOM      6  C   UNL     1      -1.143  -1.229  -0.145  0.00  0.00    +0.000 C 
ATOM      7  C   UNL     1       0.350  -1.203   0.249  0.00  0.00    +0.000 C 
ATOM      8  C   UNL     1      -3.092   0.018   0.785  0.00  0.00    +0.000 C 
ATOM      9  N   UNL     1      -4.041   0.652   0.187  0.00  0.00    +0.000 NA
ATOM     10  C   UNL     1      -5.364   0.767   0.671  0.00  0.00    +0.000 A 
ATOM     11  C   UNL     1      -6.004   1.981   0.380  0.00  0.00    +0.000 A 
ATOM     12  C   UNL     1      -7.328   2.220   0.748  0.00  0.00    +0.000 A 
ATOM     13  C   UNL     1      -8.042   1.236   1.421  0.00  0.00    +0.000 A 
ATOM     14  C   UNL     1      -7.429   0.015   1.719  0.00  0.00    +0.000 A 
ATOM     15  C   UNL     1      -6.098  -0.248   1.328  0.00  0.00    +0.000 A 
ATOM     16  N   UNL     1      -5.495  -1.466   1.742  0.00  0.00    +0.000 N 
ATOM     17  C   UNL     1      -4.329  -1.393   2.434  0.00  0.00    +0.000 A 
ATOM     18  C   UNL     1      -3.206  -0.684   2.062  0.00  0.00    +0.000 A 
ATOM     19  C   UNL     1      -2.188  -0.755   3.074  0.00  0.00    +0.000 A 
ATOM     20  C   UNL     1      -2.542  -1.539   4.146  0.00  0.00    +0.000 A 
ATOM     21  C   UNL     1      -1.733  -1.843   5.360  0.00  0.00    +0.000 C 
ATOM     22  S   UNL     1      -4.104  -2.201   3.930  0.00  0.00    +0.000 S 
ATOM     23  H   UNL     1      -6.157  -2.195   1.975  0.00  0.00    +0.000 HD
ENDROOT
TORSDOF 0
