REMARK  Name = Olaparib
REMARK  4 active torsions:
REMARK  status: ('A' for Active; 'I' for Inactive)
REMARK    1  A    between atoms: C_5  and  C_6
REMARK    2  A    between atoms: C_6  and  C_7
REMARK    3  A    between atoms: C_19  and  C_20
REMARK    4  A    between atoms: C_28  and  C_30
REMARK                            x       y       z     vdW  Elec       q    Type
REMARK                         _______ _______ _______ _____ _____    ______ ____
ROOT
ATOM      1  F   UNL     1       2.076  -0.252   0.137  0.00  0.00    +0.000 F 
ATOM      2  C   UNL     1       0.778  -0.067   0.014  0.00  0.00    +0.000 A 
ATOM      3  C   UNL     1       0.052  -1.250  -0.003  0.00  0.00    +0.000 A 
ATOM      4  C   UNL     1      -1.320  -1.199  -0.025  0.00  0.00    +0.000 A 
ATOM      5  C   UNL     1      -1.952   0.048  -0.028  0.00  0.00    +0.000 A 
ATOM      6  C   UNL     1      -1.177   1.238  -0.008  0.00  0.00    +0.000 A 
ATOM      7  C   UNL     1       0.214   1.202  -0.027  0.00  0.00    +0.000 A 
ENDROOT
BRANCH   7   8
ATOM      8  C   UNL     1       0.992   2.496   0.037  0.00  0.00    +0.000 C 
ATOM      9  O   UNL     1       0.400   3.563   0.172  0.00  0.00    +0.000 OA
ATOM     10  N   UNL     1       2.371   2.428   0.048  0.00  0.00    +0.000 N 
ATOM     11  C   UNL     1       3.209   3.117   1.039  0.00  0.00    +0.000 C 
ATOM     12  C   UNL     1       4.234   2.103   1.611  0.00  0.00    +0.000 C 
ATOM     13  N   UNL     1       5.013   1.497   0.503  0.00  0.00    +0.000 N 
ATOM     14  C   UNL     1       4.185   0.908  -0.519  0.00  0.00    +0.000 C 
ATOM     15  C   UNL     1       3.119   1.851  -1.040  0.00  0.00    +0.000 C 
ATOM     16  C   UNL     1       6.396   1.379   0.555  0.00  0.00    +0.000 C 
ATOM     17  O   UNL     1       7.046   1.880   1.458  0.00  0.00    +0.000 OA
BRANCH  16  18
ATOM     18  C   UNL     1       7.166   0.652  -0.531  0.00  0.00    +0.000 C 
ATOM     19  C   UNL     1       6.674  -0.322  -1.578  0.00  0.00    +0.000 C 
ATOM     20  C   UNL     1       7.027   1.094  -1.977  0.00  0.00    +0.000 C 
ENDBRANCH  16  18
ENDBRANCH   7   8
BRANCH   5  21
ATOM     21  C   UNL     1      -3.464   0.044  -0.054  0.00  0.00    +0.000 C 
BRANCH  21  22
ATOM     22  C   UNL     1      -4.064   1.436  -0.058  0.00  0.00    +0.000 A 
ATOM     23  N   UNL     1      -3.791   2.194  -1.081  0.00  0.00    +0.000 NA
ATOM     24  N   UNL     1      -4.135   3.504  -1.023  0.00  0.00    +0.000 N 
ATOM     25  C   UNL     1      -4.745   4.128   0.037  0.00  0.00    +0.000 A 
ATOM     26  O   UNL     1      -4.965   5.333   0.054  0.00  0.00    +0.000 OA
ATOM     27  C   UNL     1      -5.166   3.252   1.144  0.00  0.00    +0.000 A 
ATOM     28  C   UNL     1      -5.927   3.763   2.198  0.00  0.00    +0.000 A 
ATOM     29  C   UNL     1      -6.403   2.906   3.190  0.00  0.00    +0.000 A 
ATOM     30  C   UNL     1      -6.105   1.546   3.141  0.00  0.00    +0.000 A 
ATOM     31  C   UNL     1      -5.319   1.042   2.107  0.00  0.00    +0.000 A 
ATOM     32  C   UNL     1      -4.850   1.897   1.102  0.00  0.00    +0.000 A 
ATOM     33  H   UNL     1      -3.817   4.089  -1.791  0.00  0.00    +0.000 HD
ENDBRANCH  21  22
ENDBRANCH   5  21
TORSDOF 4
