REMARK  Name = Oleic Acid
REMARK  17 active torsions:
REMARK  status: ('A' for Active; 'I' for Inactive)
REMARK    1  A    between atoms: C_1  and  C_2
REMARK    2  A    between atoms: C_2  and  C_3
REMARK    3  A    between atoms: C_3  and  C_4
REMARK    4  A    between atoms: C_4  and  C_5
REMARK    5  A    between atoms: C_5  and  C_6
REMARK    6  A    between atoms: C_6  and  C_7
REMARK    7  A    between atoms: C_7  and  C_8
REMARK    8  A    between atoms: C_8  and  C_9
REMARK    9  A    between atoms: C_10  and  C_11
REMARK   10  A    between atoms: C_11  and  C_12
REMARK   11  A    between atoms: C_12  and  C_13
REMARK   12  A    between atoms: C_13  and  C_14
REMARK   13  A    between atoms: C_14  and  C_15
REMARK   14  A    between atoms: C_15  and  C_16
REMARK   15  A    between atoms: C_16  and  C_17
REMARK   16  A    between atoms: C_17  and  C_18
REMARK   17  A    between atoms: C_18  and  O_19
REMARK                            x       y       z     vdW  Elec       q    Type
REMARK                         _______ _______ _______ _____ _____    ______ ____
ROOT
ATOM      1  C   UNL     1      10.985  -6.131   4.155  0.00  0.00    +0.000 C 
ENDROOT
BRANCH   1   3
ATOM      2  C   UNL     1       9.166  -4.753   3.197  0.00  0.00    +0.000 C 
ATOM      3  C   UNL     1      10.475  -4.979   3.354  0.00  0.00    +0.000 C 
BRANCH   2   4
ATOM      4  C   UNL     1       8.654  -3.601   2.396  0.00  0.00    +0.000 C 
BRANCH   4   5
ATOM      5  C   UNL     1       7.133  -3.590   2.388  0.00  0.00    +0.000 C 
BRANCH   5   6
ATOM      6  C   UNL     1       6.621  -2.415   1.571  0.00  0.00    +0.000 C 
BRANCH   6   7
ATOM      7  C   UNL     1       5.101  -2.407   1.566  0.00  0.00    +0.000 C 
BRANCH   7   8
ATOM      8  C   UNL     1       4.586  -1.233   0.749  0.00  0.00    +0.000 C 
BRANCH   8   9
ATOM      9  C   UNL     1       3.066  -1.224   0.743  0.00  0.00    +0.000 C 
BRANCH   9  11
ATOM     10  C   UNL     1       1.026  -0.045  -0.077  0.00  0.00    +0.000 C 
ATOM     11  C   UNL     1       2.542  -0.051  -0.073  0.00  0.00    +0.000 C 
ENDBRANCH   9  11
ENDBRANCH   8   9
ENDBRANCH   7   8
ENDBRANCH   6   7
ENDBRANCH   5   6
ENDBRANCH   4   5
ENDBRANCH   2   4
ENDBRANCH   1   3
BRANCH   1  12
ATOM     12  C   UNL     1      12.506  -6.143   4.163  0.00  0.00    +0.000 C 
BRANCH  12  13
ATOM     13  C   UNL     1      13.016  -7.318   4.981  0.00  0.00    +0.000 C 
BRANCH  13  14
ATOM     14  C   UNL     1      14.534  -7.328   4.988  0.00  0.00    +0.000 C 
BRANCH  14  15
ATOM     15  C   UNL     1      15.049  -8.503   5.805  0.00  0.00    +0.000 C 
BRANCH  15  16
ATOM     16  C   UNL     1      16.568  -8.492   5.797  0.00  0.00    +0.000 C 
BRANCH  16  17
ATOM     17  C   UNL     1      17.146  -9.645   6.599  0.00  0.00    +0.000 C 
BRANCH  17  18
ATOM     18  C   UNL     1      18.656  -9.706   6.641  0.00  0.00    +0.000 C 
ATOM     19  O   UNL     1      19.248 -10.587   7.254  0.00  0.00    +0.000 OA
BRANCH  18  20
ATOM     20  O   UNL     1      19.333  -8.750   5.977  0.00  0.00    +0.000 OA
ATOM     21  H   UNL     1      18.817  -8.073   5.506  0.00  0.00    +0.000 HD
ENDBRANCH  18  20
ENDBRANCH  17  18
ENDBRANCH  16  17
ENDBRANCH  15  16
ENDBRANCH  14  15
ENDBRANCH  13  14
ENDBRANCH  12  13
ENDBRANCH   1  12
TORSDOF 16
