REMARK  Name = Oliceridine
REMARK  8 active torsions:
REMARK  status: ('A' for Active; 'I' for Inactive)
REMARK    1  A    between atoms: C_1  and  O_2
REMARK    2  A    between atoms: O_2  and  C_3
REMARK    3  A    between atoms: C_4  and  C_5
REMARK    4  A    between atoms: C_5  and  N_6
REMARK    5  A    between atoms: N_6  and  C_7
REMARK    6  A    between atoms: C_7  and  C_8
REMARK    7  A    between atoms: C_8  and  C_9
REMARK    8  A    between atoms: C_9  and  C_19
REMARK                            x       y       z     vdW  Elec       q    Type
REMARK                         _______ _______ _______ _____ _____    ______ ____
ROOT
ATOM      1  C   UNL     1      -1.883  -0.096  -3.740  0.00  0.00    +0.000 C 
ATOM      2  C   UNL     1      -2.764   1.177  -3.701  0.00  0.00    +0.000 C 
ATOM      3  C   UNL     1      -3.461   1.363  -2.344  0.00  0.00    +0.000 C 
ATOM      4  O   UNL     1      -4.222   0.213  -1.934  0.00  0.00    +0.000 OA
ATOM      5  C   UNL     1      -3.479  -1.010  -1.855  0.00  0.00    +0.000 C 
ATOM      6  C   UNL     1      -4.426  -2.194  -1.531  0.00  0.00    +0.000 C 
ATOM      7  C   UNL     1      -3.819  -2.932  -0.332  0.00  0.00    +0.000 C 
ATOM      8  C   UNL     1      -3.029  -1.891   0.409  0.00  0.00    +0.000 C 
ATOM      9  C   UNL     1      -2.480  -1.058  -0.704  0.00  0.00    +0.000 C 
ATOM     10  C   UNL     1      -2.807  -1.240  -3.199  0.00  0.00    +0.000 C 
ENDROOT
BRANCH   1  11
ATOM     11  C   UNL     1      -0.588   0.127  -2.909  0.00  0.00    +0.000 A 
ATOM     12  N   UNL     1      -0.767   0.618  -1.663  0.00  0.00    +0.000 NA
ATOM     13  C   UNL     1       0.206   0.527  -0.730  0.00  0.00    +0.000 A 
ATOM     14  C   UNL     1       1.479   0.162  -1.024  0.00  0.00    +0.000 A 
ATOM     15  C   UNL     1       1.748  -0.123  -2.358  0.00  0.00    +0.000 A 
ATOM     16  C   UNL     1       0.701  -0.182  -3.293  0.00  0.00    +0.000 A 
ENDBRANCH   1  11
BRANCH   1  17
ATOM     17  C   UNL     1      -1.547  -0.458  -5.223  0.00  0.00    +0.000 C 
BRANCH  17  18
ATOM     18  C   UNL     1      -1.424  -1.989  -5.409  0.00  0.00    +0.000 C 
BRANCH  18  19
ATOM     19  N   UNL     1      -1.138  -2.322  -6.760  0.00  0.00    +0.000 NA
ATOM     20  H   UNL     1      -1.737  -1.919  -7.475  0.00  0.00    +0.000 HD
BRANCH  19  21
ATOM     21  C   UNL     1      -0.730  -3.679  -7.017  0.00  0.00    +0.000 C 
BRANCH  21  23
ATOM     22  C   UNL     1       0.315  -2.724  -9.229  0.00  0.00    +0.000 A 
ATOM     23  C   UNL     1      -0.083  -3.735  -8.365  0.00  0.00    +0.000 A 
ATOM     24  S   UNL     1       0.220  -5.290  -9.041  0.00  0.00    +0.000 S 
ATOM     25  C   UNL     1       0.754  -4.616 -10.513  0.00  0.00    +0.000 A 
ATOM     26  C   UNL     1       0.739  -3.240 -10.485  0.00  0.00    +0.000 A 
BRANCH  22  28
ATOM     27  C   UNL     1       0.887  -0.810  -7.977  0.00  0.00    +0.000 C 
ATOM     28  O   UNL     1       0.123  -1.390  -9.034  0.00  0.00    +0.000 OA
ENDBRANCH  22  28
ENDBRANCH  21  23
ENDBRANCH  19  21
ENDBRANCH  18  19
ENDBRANCH  17  18
ENDBRANCH   1  17
TORSDOF 7
