REMARK  Name = Olmesartan
REMARK  13 active torsions:
REMARK  status: ('A' for Active; 'I' for Inactive)
REMARK    1  A    between atoms: C_1  and  C_2
REMARK    2  A    between atoms: C_2  and  C_3
REMARK    3  A    between atoms: C_3  and  C_4
REMARK    4  A    between atoms: C_6  and  C_30
REMARK    5  A    between atoms: C_7  and  C_27
REMARK    6  A    between atoms: N_8  and  C_9
REMARK    7  A    between atoms: C_9  and  C_10
REMARK    8  A    between atoms: C_13  and  C_16
REMARK    9  A    between atoms: C_17  and  C_22
REMARK   10  A    between atoms: C_27  and  O_28
REMARK   11  A    between atoms: C_30  and  C_31
REMARK   12  A    between atoms: C_30  and  C_32
REMARK   13  A    between atoms: C_30  and  O_33
REMARK                            x       y       z     vdW  Elec       q    Type
REMARK                         _______ _______ _______ _____ _____    ______ ____
ROOT
ATOM      1  C   UNL     1       4.798   0.048  -3.915  0.00  0.00    +0.000 C 
ENDROOT
BRANCH   1   2
ATOM      2  C   UNL     1       3.320   0.125  -4.077  0.00  0.00    +0.000 A 
ATOM      3  C   UNL     1       2.618  -0.949  -4.623  0.00  0.00    +0.000 A 
ATOM      4  C   UNL     1       1.241  -0.867  -4.737  0.00  0.00    +0.000 A 
ATOM      5  C   UNL     1       0.532   0.189  -4.145  0.00  0.00    +0.000 A 
ATOM      6  C   UNL     1       1.247   1.268  -3.616  0.00  0.00    +0.000 A 
ATOM      7  C   UNL     1       2.634   1.279  -3.683  0.00  0.00    +0.000 A 
BRANCH   5   8
ATOM      8  C   UNL     1      -0.933   0.146  -4.119  0.00  0.00    +0.000 A 
ATOM      9  C   UNL     1      -1.659  -0.984  -3.657  0.00  0.00    +0.000 A 
ATOM     10  C   UNL     1      -3.048  -1.018  -3.789  0.00  0.00    +0.000 A 
ATOM     11  C   UNL     1      -3.726   0.083  -4.308  0.00  0.00    +0.000 A 
ATOM     12  C   UNL     1      -3.024   1.206  -4.737  0.00  0.00    +0.000 A 
ATOM     13  C   UNL     1      -1.639   1.238  -4.642  0.00  0.00    +0.000 A 
BRANCH   9  14
ATOM     14  C   UNL     1      -1.020  -2.038  -2.888  0.00  0.00    +0.000 A 
ATOM     15  N   UNL     1      -0.753  -3.300  -3.151  0.00  0.00    +0.000 NA
ATOM     16  N   UNL     1      -0.039  -3.774  -2.065  0.00  0.00    +0.000 NA
ATOM     17  N   UNL     1       0.069  -2.845  -1.130  0.00  0.00    +0.000 NA
ATOM     18  N   UNL     1      -0.596  -1.796  -1.626  0.00  0.00    +0.000 N 
ATOM     19  H   UNL     1      -0.698  -0.931  -1.114  0.00  0.00    +0.000 HD
ENDBRANCH   9  14
ENDBRANCH   5   8
ENDBRANCH   1   2
BRANCH   1  24
ATOM     20  C   UNL     1       4.779   0.051  -1.306  0.00  0.00    +0.000 A 
ATOM     21  N   UNL     1       5.734   0.110  -0.381  0.00  0.00    +0.000 NA
ATOM     22  C   UNL     1       6.984   0.115  -1.037  0.00  0.00    +0.000 A 
ATOM     23  C   UNL     1       6.783   0.063  -2.420  0.00  0.00    +0.000 A 
ATOM     24  N   UNL     1       5.379   0.051  -2.560  0.00  0.00    +0.000 N 
BRANCH  22  25
ATOM     25  C   UNL     1       8.323   0.162  -0.275  0.00  0.00    +0.000 C 
ATOM     26  C   UNL     1       8.548   1.406   0.577  0.00  0.00    +0.000 C 
ATOM     27  C   UNL     1       8.606  -1.113   0.519  0.00  0.00    +0.000 C 
BRANCH  25  28
ATOM     28  O   UNL     1       9.431   0.244  -1.197  0.00  0.00    +0.000 OA
ATOM     29  H   UNL     1       9.381   1.144  -1.592  0.00  0.00    +0.000 HD
ENDBRANCH  25  28
ENDBRANCH  22  25
BRANCH  23  30
ATOM     30  C   UNL     1       7.666   0.060  -3.591  0.00  0.00    +0.000 C 
ATOM     31  O   UNL     1       7.279   0.154  -4.760  0.00  0.00    +0.000 OA
BRANCH  30  32
ATOM     32  O   UNL     1       8.988  -0.035  -3.392  0.00  0.00    +0.000 OA
ATOM     33  H   UNL     1       9.252  -0.379  -2.507  0.00  0.00    +0.000 HD
ENDBRANCH  30  32
ENDBRANCH  23  30
BRANCH  20  34
ATOM     34  C   UNL     1       3.259   0.041  -1.114  0.00  0.00    +0.000 C 
BRANCH  34  36
ATOM     35  C   UNL     1       1.133   0.086   0.208  0.00  0.00    +0.000 C 
ATOM     36  C   UNL     1       2.655   0.011   0.278  0.00  0.00    +0.000 C 
ENDBRANCH  34  36
ENDBRANCH  20  34
ENDBRANCH   1  24
TORSDOF 10
