REMARK  Name = Olodaterol
REMARK  12 active torsions:
REMARK  status: ('A' for Active; 'I' for Inactive)
REMARK    1  A    between atoms: C_1  and  O_2
REMARK    2  A    between atoms: O_2  and  C_3
REMARK    3  A    between atoms: C_6  and  C_7
REMARK    4  A    between atoms: C_7  and  C_8
REMARK    5  A    between atoms: C_8  and  C_9
REMARK    6  A    between atoms: C_8  and  C_10
REMARK    7  A    between atoms: C_8  and  N_11
REMARK    8  A    between atoms: N_11  and  C_12
REMARK    9  A    between atoms: C_12  and  C_13
REMARK   10  A    between atoms: C_13  and  O_14
REMARK   11  A    between atoms: C_13  and  C_15
REMARK   12  A    between atoms: C_24  and  O_25
REMARK                            x       y       z     vdW  Elec       q    Type
REMARK                         _______ _______ _______ _____ _____    ______ ____
ROOT
ATOM      1  C   UNL     1       5.461  -1.571  -9.534  0.00  0.00    +0.000 C 
ENDROOT
BRANCH   1   2
ATOM      2  C   UNL     1       4.886  -0.892 -10.796  0.00  0.00    +0.000 A 
ATOM      3  C   UNL     1       5.351   0.331 -10.980  0.00  0.00    +0.000 A 
ATOM      4  O   UNL     1       6.698   0.388 -10.775  0.00  0.00    +0.000 OA
ATOM      5  C   UNL     1       6.781   1.102  -9.578  0.00  0.00    +0.000 C 
ATOM      6  C   UNL     1       6.389   2.512 -10.043  0.00  0.00    +0.000 C 
ATOM      7  O   UNL     1       6.888   3.450  -9.497  0.00  0.00    +0.000 OA
ATOM      8  N   UNL     1       5.368   2.568 -11.121  0.00  0.00    +0.000 N 
ATOM      9  C   UNL     1       4.772   1.365 -11.659  0.00  0.00    +0.000 A 
ATOM     10  C   UNL     1       3.816   0.980 -12.650  0.00  0.00    +0.000 A 
ATOM     11  C   UNL     1       3.530  -0.397 -12.776  0.00  0.00    +0.000 A 
ATOM     12  C   UNL     1       4.126  -1.274 -11.883  0.00  0.00    +0.000 A 
ATOM     13  H   UNL     1       5.079   3.489 -11.417  0.00  0.00    +0.000 HD
BRANCH  11  14
ATOM     14  O   UNL     1       2.748  -1.105 -13.651  0.00  0.00    +0.000 OA
ATOM     15  H   UNL     1       2.229  -0.624 -14.305  0.00  0.00    +0.000 HD
ENDBRANCH  11  14
ENDBRANCH   1   2
BRANCH   1  16
ATOM     16  O   UNL     1       4.757  -1.069  -8.370  0.00  0.00    +0.000 OA
ATOM     17  H   UNL     1       3.805  -1.214  -8.491  0.00  0.00    +0.000 HD
ENDBRANCH   1  16
BRANCH   1  18
ATOM     18  C   UNL     1       5.428  -3.070  -9.492  0.00  0.00    +0.000 C 
BRANCH  18  19
ATOM     19  N   UNL     1       4.260  -3.240 -10.284  0.00  0.00    +0.000 NA
ATOM     20  H   UNL     1       3.565  -2.531 -10.055  0.00  0.00    +0.000 HD
BRANCH  19  21
ATOM     21  C   UNL     1       3.598  -4.439 -10.572  0.00  0.00    +0.000 C 
ATOM     22  C   UNL     1       2.755  -4.411  -9.264  0.00  0.00    +0.000 C 
ATOM     23  C   UNL     1       4.745  -5.405 -10.918  0.00  0.00    +0.000 C 
BRANCH  21  24
ATOM     24  C   UNL     1       2.684  -4.224 -11.838  0.00  0.00    +0.000 C 
BRANCH  24  28
ATOM     25  C   UNL     1       0.048  -7.549 -12.083  0.00  0.00    +0.000 A 
ATOM     26  C   UNL     1      -0.071  -6.513 -13.023  0.00  0.00    +0.000 A 
ATOM     27  C   UNL     1       0.821  -5.440 -13.024  0.00  0.00    +0.000 A 
ATOM     28  C   UNL     1       1.796  -5.405 -12.038  0.00  0.00    +0.000 A 
ATOM     29  C   UNL     1       1.916  -6.485 -11.161  0.00  0.00    +0.000 A 
ATOM     30  C   UNL     1       1.064  -7.538 -11.160  0.00  0.00    +0.000 A 
BRANCH  25  32
ATOM     31  C   UNL     1      -1.176  -9.118 -10.877  0.00  0.00    +0.000 C 
ATOM     32  O   UNL     1      -0.824  -8.592 -12.156  0.00  0.00    +0.000 OA
ENDBRANCH  25  32
ENDBRANCH  24  28
ENDBRANCH  21  24
ENDBRANCH  19  21
ENDBRANCH  18  19
ENDBRANCH   1  18
TORSDOF 9
