REMARK  Name = Olopatadine
REMARK  8 active torsions:
REMARK  status: ('A' for Active; 'I' for Inactive)
REMARK    1  A    between atoms: C_1  and  N_2
REMARK    2  A    between atoms: N_2  and  C_3
REMARK    3  A    between atoms: N_2  and  C_4
REMARK    4  A    between atoms: C_4  and  C_5
REMARK    5  A    between atoms: C_5  and  C_6
REMARK    6  A    between atoms: C_19  and  C_20
REMARK    7  A    between atoms: C_20  and  C_21
REMARK    8  A    between atoms: C_21  and  O_22
REMARK                            x       y       z     vdW  Elec       q    Type
REMARK                         _______ _______ _______ _____ _____    ______ ____
ROOT
ATOM      1  C   UNL     1       5.039  -0.960  -2.786  0.00  0.00    +0.000 C 
ATOM      2  C   UNL     1       6.366  -1.028  -3.037  0.00  0.00    +0.000 C 
ATOM      3  C   UNL     1       6.820  -1.546  -4.340  0.00  0.00    +0.000 A 
ATOM      4  C   UNL     1       6.623  -0.813  -5.508  0.00  0.00    +0.000 A 
ATOM      5  C   UNL     1       7.160  -1.276  -6.707  0.00  0.00    +0.000 A 
ATOM      6  C   UNL     1       7.903  -2.457  -6.739  0.00  0.00    +0.000 A 
ATOM      7  C   UNL     1       8.131  -3.176  -5.569  0.00  0.00    +0.000 A 
ATOM      8  C   UNL     1       7.584  -2.726  -4.365  0.00  0.00    +0.000 A 
ATOM      9  C   UNL     1       7.864  -3.436  -3.074  0.00  0.00    +0.000 C 
ATOM     10  O   UNL     1       8.835  -2.728  -2.322  0.00  0.00    +0.000 OA
ATOM     11  C   UNL     1       8.460  -1.554  -1.736  0.00  0.00    +0.000 A 
ATOM     12  C   UNL     1       7.368  -0.714  -1.992  0.00  0.00    +0.000 A 
ATOM     13  C   UNL     1       7.272   0.520  -1.299  0.00  0.00    +0.000 A 
ATOM     14  C   UNL     1       8.157   0.878  -0.271  0.00  0.00    +0.000 A 
ATOM     15  C   UNL     1       9.193  -0.013  -0.051  0.00  0.00    +0.000 A 
ATOM     16  C   UNL     1       9.370  -1.175  -0.779  0.00  0.00    +0.000 A 
ENDROOT
BRANCH   1  17
ATOM     17  C   UNL     1       4.451  -0.570  -1.454  0.00  0.00    +0.000 C 
BRANCH  17  18
ATOM     18  C   UNL     1       2.928  -0.584  -1.386  0.00  0.00    +0.000 C 
BRANCH  18  20
ATOM     19  C   UNL     1       0.995  -0.068  -0.069  0.00  0.00    +0.000 C 
ATOM     20  N   UNL     1       2.456  -0.110  -0.069  0.00  0.00    +0.000 NA
ATOM     21  C   UNL     1       2.926  -0.969   1.021  0.00  0.00    +0.000 C 
ENDBRANCH  18  20
ENDBRANCH  17  18
ENDBRANCH   1  17
BRANCH  14  22
ATOM     22  C   UNL     1       7.903   2.164   0.489  0.00  0.00    +0.000 C 
BRANCH  22  23
ATOM     23  C   UNL     1       8.800   2.727   1.580  0.00  0.00    +0.000 C 
ATOM     24  O   UNL     1       8.503   3.778   2.125  0.00  0.00    +0.000 OA
BRANCH  23  25
ATOM     25  O   UNL     1       9.924   2.127   1.993  0.00  0.00    +0.000 OA
ATOM     26  H   UNL     1      10.285   1.326   1.612  0.00  0.00    +0.000 HD
ENDBRANCH  23  25
ENDBRANCH  22  23
ENDBRANCH  14  22
TORSDOF 6
