REMARK  Name = Olsalazine
REMARK  8 active torsions:
REMARK  status: ('A' for Active; 'I' for Inactive)
REMARK    1  A    between atoms: O_1  and  C_2
REMARK    2  A    between atoms: C_2  and  C_4
REMARK    3  A    between atoms: C_6  and  N_11
REMARK    4  A    between atoms: C_9  and  O_10
REMARK    5  A    between atoms: N_12  and  C_13
REMARK    6  A    between atoms: C_16  and  O_17
REMARK    7  A    between atoms: C_18  and  C_20
REMARK    8  A    between atoms: C_20  and  O_21
REMARK                            x       y       z     vdW  Elec       q    Type
REMARK                         _______ _______ _______ _____ _____    ______ ____
ROOT
ATOM      1  N   UNL     1       5.849   0.055  -3.592  0.00  0.00    +0.000 NA
ATOM      2  N   UNL     1       6.386   0.713  -4.521  0.00  0.00    +0.000 NA
ENDROOT
BRANCH   1   5
ATOM      3  C   UNL     1       3.096   0.735  -1.110  0.00  0.00    +0.000 A 
ATOM      4  C   UNL     1       4.169   0.123  -1.803  0.00  0.00    +0.000 A 
ATOM      5  C   UNL     1       4.811   0.755  -2.891  0.00  0.00    +0.000 A 
ATOM      6  C   UNL     1       4.358   2.045  -3.225  0.00  0.00    +0.000 A 
ATOM      7  C   UNL     1       3.314   2.676  -2.520  0.00  0.00    +0.000 A 
ATOM      8  C   UNL     1       2.675   2.013  -1.476  0.00  0.00    +0.000 A 
BRANCH   3   9
ATOM      9  C   UNL     1       2.458   0.027   0.031  0.00  0.00    +0.000 C 
ATOM     10  O   UNL     1       3.110  -0.568   0.878  0.00  0.00    +0.000 OA
BRANCH   9  11
ATOM     11  O   UNL     1       1.107   0.025   0.006  0.00  0.00    +0.000 OA
ATOM     12  H   UNL     1       0.723   0.631  -0.660  0.00  0.00    +0.000 HD
ENDBRANCH   9  11
ENDBRANCH   3   9
BRANCH   8  13
ATOM     13  O   UNL     1       1.627   2.592  -0.817  0.00  0.00    +0.000 OA
ATOM     14  H   UNL     1       1.525   3.522  -1.089  0.00  0.00    +0.000 HD
ENDBRANCH   8  13
ENDBRANCH   1   5
BRANCH   2  15
ATOM     15  C   UNL     1       7.381  -0.006  -5.252  0.00  0.00    +0.000 A 
ATOM     16  C   UNL     1       7.236  -1.343  -5.642  0.00  0.00    +0.000 A 
ATOM     17  C   UNL     1       8.209  -1.982  -6.428  0.00  0.00    +0.000 A 
ATOM     18  C   UNL     1       9.346  -1.286  -6.847  0.00  0.00    +0.000 A 
ATOM     19  C   UNL     1       9.541   0.059  -6.483  0.00  0.00    +0.000 A 
ATOM     20  C   UNL     1       8.537   0.681  -5.695  0.00  0.00    +0.000 A 
BRANCH  18  21
ATOM     21  O   UNL     1      10.263  -1.934  -7.628  0.00  0.00    +0.000 OA
ATOM     22  H   UNL     1      10.011  -2.850  -7.818  0.00  0.00    +0.000 HD
ENDBRANCH  18  21
BRANCH  19  23
ATOM     23  C   UNL     1      10.797   0.768  -6.941  0.00  0.00    +0.000 C 
ATOM     24  O   UNL     1      11.677   0.252  -7.616  0.00  0.00    +0.000 OA
BRANCH  23  25
ATOM     25  O   UNL     1      10.938   2.057  -6.562  0.00  0.00    +0.000 OA
ATOM     26  H   UNL     1      10.256   2.468  -6.014  0.00  0.00    +0.000 HD
ENDBRANCH  23  25
ENDBRANCH  19  23
ENDBRANCH   2  15
TORSDOF 8
