REMARK  Name = Olutasidenib
REMARK  6 active torsions:
REMARK  status: ('A' for Active; 'I' for Inactive)
REMARK    1  A    between atoms: C_1  and  C_2
REMARK    2  A    between atoms: C_2  and  N_3
REMARK    3  A    between atoms: C_2  and  C_14
REMARK    4  A    between atoms: N_3  and  C_4
REMARK    5  A    between atoms: C_7  and  C_8
REMARK    6  A    between atoms: N_10  and  C_11
REMARK                            x       y       z     vdW  Elec       q    Type
REMARK                         _______ _______ _______ _____ _____    ______ ____
ROOT
ATOM      1  C   UNL     1       3.227  -1.230  -0.763  0.00  0.00    +0.000 C 
ATOM      2  C   UNL     1       2.625   0.045  -0.127  0.00  0.00    +0.000 C 
ENDROOT
BRANCH   2   3
ATOM      3  C   UNL     1       3.173   1.248  -0.856  0.00  0.00    +0.000 A 
ATOM      4  C   UNL     1       4.470   1.331  -1.210  0.00  0.00    +0.000 A 
ATOM      5  C   UNL     1       4.937   2.422  -2.047  0.00  0.00    +0.000 A 
ATOM      6  C   UNL     1       4.270   3.636  -1.925  0.00  0.00    +0.000 A 
ATOM      7  N   UNL     1       3.012   3.628  -1.301  0.00  0.00    +0.000 N 
ATOM      8  C   UNL     1       2.321   2.430  -1.188  0.00  0.00    +0.000 A 
ATOM      9  O   UNL     1       1.112   2.363  -1.296  0.00  0.00    +0.000 OA
ATOM     10  C   UNL     1       4.749   4.773  -2.563  0.00  0.00    +0.000 A 
ATOM     11  C   UNL     1       5.905   4.673  -3.341  0.00  0.00    +0.000 A 
ATOM     12  C   UNL     1       6.460   3.417  -3.602  0.00  0.00    +0.000 A 
ATOM     13 CL   UNL     1       7.685   3.256  -4.798  0.00  0.00    +0.000 Cl
ATOM     14  C   UNL     1       5.984   2.284  -2.950  0.00  0.00    +0.000 A 
ATOM     15  H   UNL     1       2.932   4.229  -0.488  0.00  0.00    +0.000 HD
ENDBRANCH   2   3
BRANCH   2  16
ATOM     16  N   UNL     1       1.178  -0.094  -0.161  0.00  0.00    +0.000 N 
ATOM     17  H   UNL     1       0.618   0.719  -0.465  0.00  0.00    +0.000 HD
BRANCH  16  18
ATOM     18  C   UNL     1       0.449  -1.042   0.543  0.00  0.00    +0.000 A 
ATOM     19  C   UNL     1       0.986  -2.024   1.284  0.00  0.00    +0.000 A 
ATOM     20  C   UNL     1       0.228  -2.945   2.047  0.00  0.00    +0.000 A 
ATOM     21  C   UNL     1      -1.072  -3.034   1.800  0.00  0.00    +0.000 A 
ATOM     22  N   UNL     1      -1.735  -2.138   0.975  0.00  0.00    +0.000 N 
ATOM     23  C   UNL     1      -3.167  -2.256   0.728  0.00  0.00    +0.000 C 
ATOM     24  C   UNL     1      -1.078  -1.029   0.426  0.00  0.00    +0.000 A 
ATOM     25  O   UNL     1      -1.656  -0.122  -0.160  0.00  0.00    +0.000 OA
BRANCH  21  26
ATOM     26  C   UNL     1      -1.842  -4.172   2.449  0.00  0.00    +0.000 C 
ATOM     27  N   UNL     1      -2.481  -5.117   2.988  0.00  0.00    +0.000 NA
ENDBRANCH  21  26
ENDBRANCH  16  18
ENDBRANCH   2  16
TORSDOF 4
