REMARK  Name = Omacetaxine mepesuccinate
REMARK  17 active torsions:
REMARK  status: ('A' for Active; 'I' for Inactive)
REMARK    1  A    between atoms: C_2  and  O_3
REMARK    2  A    between atoms: O_3  and  C_4
REMARK    3  A    between atoms: C_4  and  C_6
REMARK    4  A    between atoms: C_6  and  O_7
REMARK    5  A    between atoms: C_6  and  C_8
REMARK    6  A    between atoms: C_6  and  C_15
REMARK    7  A    between atoms: C_8  and  C_9
REMARK    8  A    between atoms: C_9  and  C_10
REMARK    9  A    between atoms: C_10  and  C_11
REMARK   10  A    between atoms: C_11  and  C_12
REMARK   11  A    between atoms: C_11  and  C_13
REMARK   12  A    between atoms: C_11  and  O_14
REMARK   13  A    between atoms: C_15  and  C_16
REMARK   14  A    between atoms: C_16  and  O_18
REMARK   15  A    between atoms: O_18  and  C_19
REMARK   16  A    between atoms: C_20  and  O_21
REMARK   17  A    between atoms: O_21  and  C_22
REMARK                            x       y       z     vdW  Elec       q    Type
REMARK                         _______ _______ _______ _____ _____    ______ ____
ROOT
ATOM      1  C   UNL     1       2.630  -0.361  -0.671  0.00  0.00    +0.000 C 
ATOM      2  C   UNL     1       2.788   0.019   0.888  0.00  0.00    +0.000 C 
ATOM      3  C   UNL     1       3.188  -1.115   1.504  0.00  0.00    +0.000 C 
ATOM      4  C   UNL     1       3.117  -2.318   0.591  0.00  0.00    +0.000 C 
ATOM      5  C   UNL     1       1.786  -2.935   1.045  0.00  0.00    +0.000 C 
ATOM      6  C   UNL     1       2.166  -4.330   1.465  0.00  0.00    +0.000 C 
ATOM      7  C   UNL     1       3.666  -4.447   1.356  0.00  0.00    +0.000 C 
ATOM      8  N   UNL     1       4.184  -3.112   1.208  0.00  0.00    +0.000 NA
ATOM      9  C   UNL     1       5.041  -3.033   0.107  0.00  0.00    +0.000 C 
ATOM     10  C   UNL     1       6.281  -3.573  -0.430  0.00  0.00    +0.000 C 
ATOM     11  C   UNL     1       6.108  -2.755  -1.782  0.00  0.00    +0.000 A 
ATOM     12  C   UNL     1       7.215  -2.442  -2.680  0.00  0.00    +0.000 A 
ATOM     13  C   UNL     1       7.276  -2.871  -4.053  0.00  0.00    +0.000 A 
ATOM     14  C   UNL     1       6.187  -3.574  -4.465  0.00  0.00    +0.000 A 
ATOM     15  O   UNL     1       6.339  -4.120  -5.724  0.00  0.00    +0.000 OA
ATOM     16  C   UNL     1       7.739  -3.862  -5.998  0.00  0.00    +0.000 C 
ATOM     17  O   UNL     1       8.204  -2.788  -5.089  0.00  0.00    +0.000 OA
ATOM     18  C   UNL     1       5.062  -3.744  -3.509  0.00  0.00    +0.000 A 
ATOM     19  C   UNL     1       4.812  -2.737  -2.323  0.00  0.00    +0.000 A 
ATOM     20  C   UNL     1       3.344  -1.999  -1.258  0.00  0.00    +0.000 C 
ENDROOT
BRANCH   2  21
ATOM     21  O   UNL     1       2.624   1.109   1.743  0.00  0.00    +0.000 OA
ATOM     22  C   UNL     1       2.085   2.377   1.437  0.00  0.00    +0.000 C 
ENDBRANCH   2  21
BRANCH   1  23
ATOM     23  O   UNL     1       2.797   0.779  -1.462  0.00  0.00    +0.000 OA
BRANCH  23  24
ATOM     24  C   UNL     1       4.047   1.280  -1.243  0.00  0.00    +0.000 C 
ATOM     25  O   UNL     1       4.891   0.763  -0.557  0.00  0.00    +0.000 OA
BRANCH  24  26
ATOM     26  C   UNL     1       4.251   2.540  -2.081  0.00  0.00    +0.000 C 
BRANCH  26  27
ATOM     27  O   UNL     1       3.710   2.255  -3.380  0.00  0.00    +0.000 OA
ATOM     28  H   UNL     1       2.744   2.165  -3.297  0.00  0.00    +0.000 HD
ENDBRANCH  26  27
BRANCH  26  29
ATOM     29  C   UNL     1       3.637   3.816  -1.471  0.00  0.00    +0.000 C 
BRANCH  29  30
ATOM     30  C   UNL     1       2.125   3.818  -1.492  0.00  0.00    +0.000 C 
BRANCH  30  31
ATOM     31  C   UNL     1       1.546   5.093  -0.894  0.00  0.00    +0.000 C 
BRANCH  31  32
ATOM     32  C   UNL     1       0.012   5.023  -0.844  0.00  0.00    +0.000 C 
ATOM     33  C   UNL     1      -0.564   4.794  -2.239  0.00  0.00    +0.000 C 
ATOM     34  C   UNL     1      -0.470   3.914   0.082  0.00  0.00    +0.000 C 
BRANCH  32  35
ATOM     35  O   UNL     1      -0.480   6.251  -0.318  0.00  0.00    +0.000 OA
ATOM     36  H   UNL     1      -0.194   6.967  -0.909  0.00  0.00    +0.000 HD
ENDBRANCH  32  35
ENDBRANCH  31  32
ENDBRANCH  30  31
ENDBRANCH  29  30
ENDBRANCH  26  29
BRANCH  26  37
ATOM     37  C   UNL     1       5.768   2.665  -2.171  0.00  0.00    +0.000 C 
BRANCH  37  38
ATOM     38  C   UNL     1       6.151   3.788  -3.093  0.00  0.00    +0.000 C 
ATOM     39  O   UNL     1       5.371   4.507  -3.703  0.00  0.00    +0.000 OA
BRANCH  38  40
ATOM     40  O   UNL     1       7.501   3.939  -3.149  0.00  0.00    +0.000 OA
ATOM     41  C   UNL     1       7.876   5.014  -4.015  0.00  0.00    +0.000 C 
ENDBRANCH  38  40
ENDBRANCH  37  38
ENDBRANCH  26  37
ENDBRANCH  24  26
ENDBRANCH  23  24
ENDBRANCH   1  23
TORSDOF 13
