REMARK  Name = Omadacycline
REMARK  18 active torsions:
REMARK  status: ('A' for Active; 'I' for Inactive)
REMARK    1  A    between atoms: C_5  and  N_40
REMARK    2  A    between atoms: C_7  and  C_8
REMARK    3  A    between atoms: C_8  and  N_9
REMARK    4  A    between atoms: N_9  and  C_10
REMARK    5  A    between atoms: C_10  and  C_11
REMARK    6  A    between atoms: C_11  and  C_12
REMARK    7  A    between atoms: C_11  and  C_13
REMARK    8  A    between atoms: C_11  and  C_14
REMARK    9  A    between atoms: C_15  and  O_16
REMARK   10  A    between atoms: C_21  and  O_22
REMARK   11  A    between atoms: C_23  and  O_24
REMARK   12  A    between atoms: C_27  and  C_28
REMARK   13  A    between atoms: C_31  and  O_32
REMARK   14  A    between atoms: C_33  and  N_34
REMARK   15  A    between atoms: N_34  and  C_35
REMARK   16  A    between atoms: N_34  and  C_36
REMARK   17  A    between atoms: N_40  and  C_41
REMARK   18  A    between atoms: N_40  and  C_42
REMARK                            x       y       z     vdW  Elec       q    Type
REMARK                         _______ _______ _______ _____ _____    ______ ____
ROOT
ATOM      1  C   UNL     1       2.116   0.123  -0.117  0.00  0.00    +0.000 C 
ATOM      2  C   UNL     1       2.454  -0.587   1.138  0.00  0.00    +0.000 C 
ATOM      3  C   UNL     1       2.276  -2.040   1.234  0.00  0.00    +0.000 A 
ATOM      4  C   UNL     1       2.087  -2.621   2.514  0.00  0.00    +0.000 A 
ATOM      5  C   UNL     1       1.955  -4.020   2.466  0.00  0.00    +0.000 A 
ATOM      6  C   UNL     1       2.043  -4.786   1.277  0.00  0.00    +0.000 A 
ATOM      7  C   UNL     1       2.261  -4.134   0.058  0.00  0.00    +0.000 A 
ATOM      8  C   UNL     1       2.384  -2.763   0.025  0.00  0.00    +0.000 A 
ATOM      9  C   UNL     1       2.656  -2.076  -1.278  0.00  0.00    +0.000 C 
ATOM     10  O   UNL     1       2.969  -2.669  -2.308  0.00  0.00    +0.000 OA
ATOM     11  C   UNL     1       2.593  -0.592  -1.317  0.00  0.00    +0.000 C 
ATOM     12  C   UNL     1       2.958   0.081  -2.423  0.00  0.00    +0.000 C 
ATOM     13  C   UNL     1       2.897   1.592  -2.523  0.00  0.00    +0.000 C 
ATOM     14  C   UNL     1       4.209   2.213  -2.956  0.00  0.00    +0.000 C 
ATOM     15  O   UNL     1       5.286   1.621  -2.801  0.00  0.00    +0.000 OA
ATOM     16  C   UNL     1       4.228   3.690  -3.244  0.00  0.00    +0.000 C 
ATOM     17  C   UNL     1       4.335   4.160  -2.000  0.00  0.00    +0.000 C 
ATOM     18  C   UNL     1       2.967   3.832  -1.034  0.00  0.00    +0.000 C 
ATOM     19  C   UNL     1       2.568   2.300  -1.189  0.00  0.00    +0.000 C 
ATOM     20  C   UNL     1       2.765   1.508   0.070  0.00  0.00    +0.000 C 
ENDROOT
BRANCH  16  21
ATOM     21  C   UNL     1       3.142   4.648  -3.656  0.00  0.00    +0.000 C 
ATOM     22  N   UNL     1       3.384   6.009  -3.477  0.00  0.00    +0.000 N 
ATOM     23  O   UNL     1       2.015   4.290  -4.011  0.00  0.00    +0.000 OA
ATOM     24  H   UNL     1       4.200   6.319  -2.949  0.00  0.00    +0.000 HD
ATOM     25  H   UNL     1       2.569   6.553  -3.217  0.00  0.00    +0.000 HD
ENDBRANCH  16  21
BRANCH  18  26
ATOM     26  N   UNL     1       1.578   4.458  -0.962  0.00  0.00    +0.000 NA
ATOM     27  C   UNL     1       0.343   3.975  -1.665  0.00  0.00    +0.000 C 
ATOM     28  C   UNL     1       1.429   5.868  -0.723  0.00  0.00    +0.000 C 
ENDBRANCH  18  26
BRANCH   4  29
ATOM     29  N   UNL     1       2.065  -1.904   3.716  0.00  0.00    +0.000 N 
ATOM     30  C   UNL     1       2.219  -0.447   3.943  0.00  0.00    +0.000 C 
ATOM     31  C   UNL     1       1.749  -2.552   4.993  0.00  0.00    +0.000 C 
ENDBRANCH   4  29
BRANCH   7  32
ATOM     32  O   UNL     1       2.353  -4.812  -1.124  0.00  0.00    +0.000 OA
ATOM     33  H   UNL     1       1.963  -5.699  -0.993  0.00  0.00    +0.000 HD
ENDBRANCH   7  32
BRANCH  12  34
ATOM     34  O   UNL     1       3.335  -0.558  -3.596  0.00  0.00    +0.000 OA
ATOM     35  H   UNL     1       3.359  -1.528  -3.401  0.00  0.00    +0.000 HD
ENDBRANCH  12  34
BRANCH  13  36
ATOM     36  O   UNL     1       1.890   1.810  -3.501  0.00  0.00    +0.000 OA
ATOM     37  H   UNL     1       2.205   1.357  -4.308  0.00  0.00    +0.000 HD
ENDBRANCH  13  36
BRANCH  17  38
ATOM     38  O   UNL     1       5.245   5.275  -1.900  0.00  0.00    +0.000 OA
ATOM     39  H   UNL     1       5.843   5.253  -2.711  0.00  0.00    +0.000 HD
ENDBRANCH  17  38
BRANCH   6  40
ATOM     40  C   UNL     1       1.912  -6.287   1.407  0.00  0.00    +0.000 C 
BRANCH  40  41
ATOM     41  N   UNL     1       2.141  -6.919   0.120  0.00  0.00    +0.000 NA
ATOM     42  H   UNL     1       3.130  -6.751  -0.106  0.00  0.00    +0.000 HD
BRANCH  41  43
ATOM     43  C   UNL     1       1.920  -8.347   0.120  0.00  0.00    +0.000 C 
BRANCH  43  44
ATOM     44  C   UNL     1       2.062  -8.874  -1.327  0.00  0.00    +0.000 C 
ATOM     45  C   UNL     1       0.964  -8.289  -2.237  0.00  0.00    +0.000 C 
ATOM     46  C   UNL     1       3.444  -8.522  -1.915  0.00  0.00    +0.000 C 
ATOM     47  C   UNL     1       1.914 -10.397  -1.277  0.00  0.00    +0.000 C 
ENDBRANCH  43  44
ENDBRANCH  41  43
ENDBRANCH  40  41
ENDBRANCH   6  40
TORSDOF 11
