REMARK  Name = Omeprazole
REMARK  9 active torsions:
REMARK  status: ('A' for Active; 'I' for Inactive)
REMARK    1  A    between atoms: C_1  and  O_2
REMARK    2  A    between atoms: O_2  and  C_3
REMARK    3  A    between atoms: C_10  and  S_12
REMARK    4  A    between atoms: S_12  and  C_14
REMARK    5  A    between atoms: C_14  and  C_15
REMARK    6  A    between atoms: C_18  and  C_19
REMARK    7  A    between atoms: C_20  and  O_21
REMARK    8  A    between atoms: O_21  and  C_22
REMARK    9  A    between atoms: C_23  and  C_24
REMARK                            x       y       z     vdW  Elec       q    Type
REMARK                         _______ _______ _______ _____ _____    ______ ____
ROOT
ATOM      1  S   UNL     1       7.443   0.019  -5.538  0.00  0.00    +0.000 S 
ATOM      2  O   UNL     1       8.042   1.367  -5.250  0.00  0.00    +0.000 OA
ENDROOT
BRANCH   1  10
ATOM      3  C   UNL     1       3.085   0.406  -1.139  0.00  0.00    +0.000 A 
ATOM      4  C   UNL     1       4.207  -0.371  -1.456  0.00  0.00    +0.000 A 
ATOM      5  C   UNL     1       4.871  -0.053  -2.633  0.00  0.00    +0.000 A 
ATOM      6  C   UNL     1       4.477   0.999  -3.452  0.00  0.00    +0.000 A 
ATOM      7  C   UNL     1       3.398   1.812  -3.097  0.00  0.00    +0.000 A 
ATOM      8  C   UNL     1       2.699   1.494  -1.931  0.00  0.00    +0.000 A 
ATOM      9  N   UNL     1       5.258   1.060  -4.553  0.00  0.00    +0.000 NA
ATOM     10  C   UNL     1       6.142   0.085  -4.424  0.00  0.00    +0.000 A 
ATOM     11  N   UNL     1       5.966  -0.589  -3.260  0.00  0.00    +0.000 N 
ATOM     12  H   UNL     1       6.570  -1.311  -2.882  0.00  0.00    +0.000 HD
BRANCH   3  14
ATOM     13  C   UNL     1       1.038   0.099  -0.033  0.00  0.00    +0.000 C 
ATOM     14  O   UNL     1       2.460   0.061   0.029  0.00  0.00    +0.000 OA
ENDBRANCH   3  14
ENDBRANCH   1  10
BRANCH   1  15
ATOM     15  C   UNL     1       8.572  -1.305  -4.977  0.00  0.00    +0.000 C 
BRANCH  15  16
ATOM     16  C   UNL     1       9.755  -1.579  -5.923  0.00  0.00    +0.000 A 
ATOM     17  N   UNL     1       9.988  -2.884  -6.223  0.00  0.00    +0.000 NA
ATOM     18  C   UNL     1      11.017  -3.168  -7.070  0.00  0.00    +0.000 A 
ATOM     19  C   UNL     1      11.869  -2.235  -7.661  0.00  0.00    +0.000 A 
ATOM     20  C   UNL     1      12.911  -2.712  -8.621  0.00  0.00    +0.000 C 
ATOM     21  C   UNL     1      11.655  -0.905  -7.321  0.00  0.00    +0.000 A 
ATOM     22  C   UNL     1      10.605  -0.578  -6.435  0.00  0.00    +0.000 A 
ATOM     23  C   UNL     1      10.365   0.875  -6.168  0.00  0.00    +0.000 C 
BRANCH  21  24
ATOM     24  O   UNL     1      12.327   0.203  -7.757  0.00  0.00    +0.000 OA
ATOM     25  C   UNL     1      13.427   0.132  -8.632  0.00  0.00    +0.000 C 
ENDBRANCH  21  24
ENDBRANCH  15  16
ENDBRANCH   1  15
TORSDOF 5
