REMARK  Name = Ondansetron
REMARK  4 active torsions:
REMARK  status: ('A' for Active; 'I' for Inactive)
REMARK    1  A    between atoms: C_1  and  N_2
REMARK    2  A    between atoms: C_13  and  C_14
REMARK    3  A    between atoms: C_14  and  N_15
REMARK    4  A    between atoms: C_19  and  C_20
REMARK                            x       y       z     vdW  Elec       q    Type
REMARK                         _______ _______ _______ _____ _____    ______ ____
ROOT
ATOM      1  C   UNL     1       1.037  -0.105  -0.058  0.00  0.00    +0.000 C 
ATOM      2  N   UNL     1       2.489  -0.119  -0.057  0.00  0.00    +0.000 N 
ATOM      3  C   UNL     1       3.303   0.977  -0.089  0.00  0.00    +0.000 A 
ATOM      4  C   UNL     1       4.628   0.587  -0.074  0.00  0.00    +0.000 A 
ATOM      5  C   UNL     1       4.624  -0.813  -0.038  0.00  0.00    +0.000 A 
ATOM      6  C   UNL     1       5.671  -1.740  -0.036  0.00  0.00    +0.000 A 
ATOM      7  C   UNL     1       5.368  -3.092  -0.041  0.00  0.00    +0.000 A 
ATOM      8  C   UNL     1       4.040  -3.516  -0.045  0.00  0.00    +0.000 A 
ATOM      9  C   UNL     1       2.972  -2.608  -0.046  0.00  0.00    +0.000 A 
ATOM     10  C   UNL     1       3.289  -1.246  -0.045  0.00  0.00    +0.000 A 
ATOM     11  C   UNL     1       5.764   1.532  -0.121  0.00  0.00    +0.000 C 
ATOM     12  O   UNL     1       6.907   1.229   0.163  0.00  0.00    +0.000 OA
ATOM     13  C   UNL     1       5.371   2.923  -0.614  0.00  0.00    +0.000 C 
ATOM     14  C   UNL     1       4.067   3.220   0.090  0.00  0.00    +0.000 C 
ATOM     15  C   UNL     1       2.853   2.362  -0.144  0.00  0.00    +0.000 C 
ENDROOT
BRANCH  13  16
ATOM     16  C   UNL     1       6.373   4.078  -0.336  0.00  0.00    +0.000 C 
BRANCH  16  17
ATOM     17  N   UNL     1       5.878   5.444  -0.640  0.00  0.00    +0.000 N 
ATOM     18  C   UNL     1       6.428   6.304  -1.576  0.00  0.00    +0.000 A 
ATOM     19  C   UNL     1       5.666   7.449  -1.533  0.00  0.00    +0.000 A 
ATOM     20  N   UNL     1       4.676   7.332  -0.614  0.00  0.00    +0.000 NA
ATOM     21  C   UNL     1       4.845   6.168  -0.024  0.00  0.00    +0.000 A 
ATOM     22  C   UNL     1       3.986   5.792   1.146  0.00  0.00    +0.000 C 
ENDBRANCH  16  17
ENDBRANCH  13  16
TORSDOF 2
