REMARK  Name = Opicapone
REMARK  7 active torsions:
REMARK  status: ('A' for Active; 'I' for Inactive)
REMARK    1  A    between atoms: C_1  and  C_2
REMARK    2  A    between atoms: C_3  and  C_4
REMARK    3  A    between atoms: C_7  and  C_9
REMARK    4  A    between atoms: C_11  and  N_17
REMARK    5  A    between atoms: C_12  and  O_13
REMARK    6  A    between atoms: C_14  and  O_15
REMARK    7  A    between atoms: C_24  and  C_25
REMARK                            x       y       z     vdW  Elec       q    Type
REMARK                         _______ _______ _______ _____ _____    ______ ____
ROOT
ATOM      1  C   UNL     1       2.468  -2.471  -0.115  0.00  0.00    +0.000 A 
ATOM      2  N   UNL     1       2.483  -3.373   0.878  0.00  0.00    +0.000 NA
ATOM      3  O   UNL     1       1.646  -4.388   0.407  0.00  0.00    +0.000 OA
ATOM      4  C   UNL     1       1.196  -3.983  -0.818  0.00  0.00    +0.000 A 
ATOM      5  N   UNL     1       1.676  -2.818  -1.186  0.00  0.00    +0.000 NA
ENDROOT
BRANCH   1   8
ATOM      6  C   UNL     1       0.930   0.055  -0.056  0.00  0.00    +0.000 C 
ATOM      7  C   UNL     1       2.443   0.020  -0.062  0.00  0.00    +0.000 A 
ATOM      8  C   UNL     1       3.168  -1.194  -0.063  0.00  0.00    +0.000 A 
ATOM      9  C   UNL     1       4.578  -1.169  -0.045  0.00  0.00    +0.000 A 
ATOM     10 CL   UNL     1       5.501  -2.654  -0.069  0.00  0.00    +0.000 Cl
ATOM     11  N   UNL     1       5.269   0.055  -0.041  0.00  0.00    +0.000 N 
ATOM     12  O   UNL     1       6.548   0.077  -0.038  0.00  0.00    +0.000 OA
ATOM     13  C   UNL     1       4.558   1.256  -0.049  0.00  0.00    +0.000 A 
ATOM     14  C   UNL     1       5.336   2.541  -0.050  0.00  0.00    +0.000 C 
ATOM     15  C   UNL     1       3.154   1.234  -0.057  0.00  0.00    +0.000 A 
ATOM     16 CL   UNL     1       2.292   2.745  -0.064  0.00  0.00    +0.000 Cl
ENDBRANCH   1   8
BRANCH   4  17
ATOM     17  C   UNL     1       0.252  -4.864  -1.487  0.00  0.00    +0.000 A 
ATOM     18  C   UNL     1      -0.914  -5.288  -0.830  0.00  0.00    +0.000 A 
ATOM     19  C   UNL     1      -1.837  -6.125  -1.485  0.00  0.00    +0.000 A 
ATOM     20  C   UNL     1      -1.604  -6.547  -2.798  0.00  0.00    +0.000 A 
ATOM     21  C   UNL     1      -0.444  -6.112  -3.442  0.00  0.00    +0.000 A 
ATOM     22  C   UNL     1       0.473  -5.275  -2.807  0.00  0.00    +0.000 A 
BRANCH  19  23
ATOM     23  N   UNL     1      -3.042  -6.539  -0.764  0.00  0.00    +0.000 N 
ATOM     24  O   UNL     1      -3.201  -6.119   0.392  0.00  0.00    +0.000 OA
ATOM     25  O   UNL     1      -3.834  -7.287  -1.356  0.00  0.00    +0.000 OA
ENDBRANCH  19  23
BRANCH  20  26
ATOM     26  O   UNL     1      -2.427  -7.365  -3.530  0.00  0.00    +0.000 OA
ATOM     27  H   UNL     1      -3.209  -7.614  -2.988  0.00  0.00    +0.000 HD
ENDBRANCH  20  26
BRANCH  21  28
ATOM     28  O   UNL     1      -0.173  -6.502  -4.725  0.00  0.00    +0.000 OA
ATOM     29  H   UNL     1      -0.912  -7.083  -4.998  0.00  0.00    +0.000 HD
ENDBRANCH  21  28
ENDBRANCH   4  17
TORSDOF 5
