REMARK  Name = Orciprenaline
REMARK  9 active torsions:
REMARK  status: ('A' for Active; 'I' for Inactive)
REMARK    1  A    between atoms: C_1  and  C_2
REMARK    2  A    between atoms: C_2  and  C_3
REMARK    3  A    between atoms: C_2  and  N_4
REMARK    4  A    between atoms: N_4  and  C_5
REMARK    5  A    between atoms: C_5  and  C_6
REMARK    6  A    between atoms: C_6  and  O_7
REMARK    7  A    between atoms: C_6  and  C_8
REMARK    8  A    between atoms: C_10  and  O_11
REMARK    9  A    between atoms: C_13  and  O_14
REMARK                            x       y       z     vdW  Elec       q    Type
REMARK                         _______ _______ _______ _____ _____    ______ ____
ROOT
ATOM      1  C   UNL     1       6.532   1.153   2.706  0.00  0.00    +0.000 A 
ATOM      2  C   UNL     1       7.248   2.361   2.669  0.00  0.00    +0.000 A 
ATOM      3  C   UNL     1       8.641   2.342   2.643  0.00  0.00    +0.000 A 
ATOM      4  C   UNL     1       9.347   1.141   2.637  0.00  0.00    +0.000 A 
ATOM      5  C   UNL     1       8.636  -0.052   2.656  0.00  0.00    +0.000 A 
ATOM      6  C   UNL     1       7.250  -0.055   2.690  0.00  0.00    +0.000 A 
ENDROOT
BRANCH   3   7
ATOM      7  O   UNL     1       9.369   3.496   2.619  0.00  0.00    +0.000 OA
ATOM      8  H   UNL     1       8.760   4.252   2.665  0.00  0.00    +0.000 HD
ENDBRANCH   3   7
BRANCH   5   9
ATOM      9  O   UNL     1       9.263  -1.263   2.636  0.00  0.00    +0.000 OA
ATOM     10  H   UNL     1      10.222  -1.114   2.628  0.00  0.00    +0.000 HD
ENDBRANCH   5   9
BRANCH   1  11
ATOM     11  C   UNL     1       5.017   1.155   2.701  0.00  0.00    +0.000 C 
BRANCH  11  12
ATOM     12  O   UNL     1       4.518   0.409   3.815  0.00  0.00    +0.000 OA
ATOM     13  H   UNL     1       4.836  -0.503   3.723  0.00  0.00    +0.000 HD
ENDBRANCH  11  12
BRANCH  11  14
ATOM     14  C   UNL     1       4.494   0.562   1.375  0.00  0.00    +0.000 C 
BRANCH  14  15
ATOM     15  N   UNL     1       3.027   0.569   1.302  0.00  0.00    +0.000 NA
ATOM     16  H   UNL     1       2.660   0.066   2.115  0.00  0.00    +0.000 HD
BRANCH  15  18
ATOM     17  C   UNL     1       0.999  -0.047   0.102  0.00  0.00    +0.000 C 
ATOM     18  C   UNL     1       2.527  -0.028   0.059  0.00  0.00    +0.000 C 
ATOM     19  C   UNL     1       2.989   0.765  -1.167  0.00  0.00    +0.000 C 
ENDBRANCH  15  18
ENDBRANCH  14  15
ENDBRANCH  11  14
ENDBRANCH   1  11
TORSDOF 7
