REMARK  Name = Orlistat
REMARK  27 active torsions:
REMARK  status: ('A' for Active; 'I' for Inactive)
REMARK    1  A    between atoms: C_1  and  C_2
REMARK    2  A    between atoms: C_2  and  C_3
REMARK    3  A    between atoms: C_3  and  C_4
REMARK    4  A    between atoms: C_4  and  C_5
REMARK    5  A    between atoms: C_5  and  C_6
REMARK    6  A    between atoms: C_6  and  C_7
REMARK    7  A    between atoms: C_7  and  C_8
REMARK    8  A    between atoms: C_8  and  C_9
REMARK    9  A    between atoms: C_9  and  C_10
REMARK   10  A    between atoms: C_10  and  C_11
REMARK   11  A    between atoms: C_11  and  C_12
REMARK   12  A    between atoms: C_12  and  C_13
REMARK   13  A    between atoms: C_12  and  O_25
REMARK   14  A    between atoms: C_13  and  C_14
REMARK   15  A    between atoms: C_18  and  C_19
REMARK   16  A    between atoms: C_19  and  C_20
REMARK   17  A    between atoms: C_20  and  C_21
REMARK   18  A    between atoms: C_21  and  C_22
REMARK   19  A    between atoms: C_22  and  C_23
REMARK   20  A    between atoms: C_23  and  C_24
REMARK   21  A    between atoms: O_25  and  C_26
REMARK   22  A    between atoms: C_26  and  C_28
REMARK   23  A    between atoms: C_28  and  C_29
REMARK   24  A    between atoms: C_28  and  N_33
REMARK   25  A    between atoms: C_29  and  C_30
REMARK   26  A    between atoms: C_30  and  C_31
REMARK   27  A    between atoms: C_30  and  C_32
REMARK                            x       y       z     vdW  Elec       q    Type
REMARK                         _______ _______ _______ _____ _____    ______ ____
ROOT
ATOM      1  C   UNL     1       9.943   8.942  11.314  0.00  0.00    +0.000 C 
ENDROOT
BRANCH   1   2
ATOM      2  O   UNL     1       8.490   8.910  11.055  0.00  0.00    +0.000 OA
BRANCH   2   3
ATOM      3  C   UNL     1       7.976  10.032  10.510  0.00  0.00    +0.000 C 
ATOM      4  O   UNL     1       8.713  10.920  10.121  0.00  0.00    +0.000 OA
BRANCH   3   5
ATOM      5  C   UNL     1       6.439  10.100  10.398  0.00  0.00    +0.000 C 
BRANCH   5   6
ATOM      6  N   UNL     1       5.772  10.210  11.689  0.00  0.00    +0.000 N 
ATOM      7  C   UNL     1       5.818   9.261  12.664  0.00  0.00    +0.000 C 
ATOM      8  O   UNL     1       5.198   9.363  13.712  0.00  0.00    +0.000 OA
ATOM      9  H   UNL     1       5.084  10.939  11.846  0.00  0.00    +0.000 HD
ENDBRANCH   5   6
BRANCH   5  10
ATOM     10  C   UNL     1       6.017  11.283   9.474  0.00  0.00    +0.000 C 
BRANCH  10  11
ATOM     11  C   UNL     1       6.203  12.742  10.000  0.00  0.00    +0.000 C 
ATOM     12  C   UNL     1       7.557  13.053  10.622  0.00  0.00    +0.000 C 
ATOM     13  C   UNL     1       6.016  13.735   8.851  0.00  0.00    +0.000 C 
ENDBRANCH  10  11
ENDBRANCH   5  10
ENDBRANCH   3   5
ENDBRANCH   2   3
ENDBRANCH   1   2
BRANCH   1  14
ATOM     14  C   UNL     1      10.814   9.268  10.057  0.00  0.00    +0.000 C 
BRANCH  14  15
ATOM     15  C   UNL     1      12.331   9.585  10.147  0.00  0.00    +0.000 C 
ATOM     16  O   UNL     1      13.307   8.703  10.769  0.00  0.00    +0.000 OA
ATOM     17  C   UNL     1      13.554   9.585  11.774  0.00  0.00    +0.000 C 
ATOM     18  O   UNL     1      14.150   9.411  12.822  0.00  0.00    +0.000 OA
ATOM     19  C   UNL     1      12.916  10.740  11.002  0.00  0.00    +0.000 C 
BRANCH  19  20
ATOM     20  C   UNL     1      14.011  11.535  10.342  0.00  0.00    +0.000 C 
BRANCH  20  21
ATOM     21  C   UNL     1      13.513  11.944   8.980  0.00  0.00    +0.000 C 
BRANCH  21  22
ATOM     22  C   UNL     1      14.517  12.852   8.341  0.00  0.00    +0.000 C 
BRANCH  22  23
ATOM     23  C   UNL     1      13.998  13.254   6.980  0.00  0.00    +0.000 C 
BRANCH  23  24
ATOM     24  C   UNL     1      14.996  14.188   6.330  0.00  0.00    +0.000 C 
ATOM     25  C   UNL     1      14.493  14.614   4.971  0.00  0.00    +0.000 C 
ENDBRANCH  23  24
ENDBRANCH  22  23
ENDBRANCH  21  22
ENDBRANCH  20  21
ENDBRANCH  19  20
ENDBRANCH  14  15
ENDBRANCH   1  14
BRANCH   1  26
ATOM     26  C   UNL     1      10.198   7.523  11.855  0.00  0.00    +0.000 C 
BRANCH  26  27
ATOM     27  C   UNL     1      11.652   7.346  12.115  0.00  0.00    +0.000 C 
BRANCH  27  28
ATOM     28  C   UNL     1      12.243   6.088  12.644  0.00  0.00    +0.000 C 
BRANCH  28  29
ATOM     29  C   UNL     1      13.764   6.248  12.798  0.00  0.00    +0.000 C 
BRANCH  29  30
ATOM     30  C   UNL     1      14.304   4.919  13.261  0.00  0.00    +0.000 C 
BRANCH  30  31
ATOM     31  C   UNL     1      15.798   4.975  13.494  0.00  0.00    +0.000 C 
BRANCH  31  32
ATOM     32  C   UNL     1      16.260   3.615  13.983  0.00  0.00    +0.000 C 
BRANCH  32  33
ATOM     33  C   UNL     1      17.754   3.632  14.233  0.00  0.00    +0.000 C 
BRANCH  33  34
ATOM     34  C   UNL     1      18.212   2.269  14.722  0.00  0.00    +0.000 C 
BRANCH  34  36
ATOM     35  C   UNL     1      20.168   0.917  15.463  0.00  0.00    +0.000 C 
ATOM     36  C   UNL     1      19.712   2.277  14.976  0.00  0.00    +0.000 C 
ENDBRANCH  34  36
ENDBRANCH  33  34
ENDBRANCH  32  33
ENDBRANCH  31  32
ENDBRANCH  30  31
ENDBRANCH  29  30
ENDBRANCH  28  29
ENDBRANCH  27  28
ENDBRANCH  26  27
ENDBRANCH   1  26
TORSDOF 23
