REMARK  Name = Ornithine
REMARK  7 active torsions:
REMARK  status: ('A' for Active; 'I' for Inactive)
REMARK    1  A    between atoms: N_1  and  C_2
REMARK    2  A    between atoms: C_2  and  C_3
REMARK    3  A    between atoms: C_3  and  C_4
REMARK    4  A    between atoms: C_4  and  CA_5
REMARK    5  A    between atoms: CA_5  and  N_6
REMARK    6  A    between atoms: CA_5  and  C_7
REMARK    7  A    between atoms: C_7  and  O_8
REMARK                            x       y       z     vdW  Elec       q    Type
REMARK                         _______ _______ _______ _____ _____    ______ ____
ROOT
ATOM      1  CA  UNL     1       5.135  -2.860   0.181  0.00  0.00    +0.000 C 
ENDROOT
BRANCH   1   2
ATOM      2  N   UNL     1       4.607  -1.481   0.120  0.00  0.00    +0.000 NA
ATOM      3  H1  UNL     1       4.849  -1.008  -0.746  0.00  0.00    +0.000 HD
ATOM      4  H2  UNL     1       4.851  -0.947   0.951  0.00  0.00    +0.000 HD
ENDBRANCH   1   2
BRANCH   1   5
ATOM      5  C   UNL     1       6.685  -2.874   0.234  0.00  0.00    +0.000 C 
ATOM      6  OXT UNL     1       7.367  -3.885   0.358  0.00  0.00    +0.000 OA
BRANCH   5   7
ATOM      7  O   UNL     1       7.275  -1.660   0.146  0.00  0.00    +0.000 OA
ATOM      8  H   UNL     1       6.632  -0.935   0.089  0.00  0.00    +0.000 HD
ENDBRANCH   5   7
ENDBRANCH   1   5
BRANCH   1   9
ATOM      9  C   UNL     1       4.596  -3.657  -1.017  0.00  0.00    +0.000 C 
BRANCH   9  10
ATOM     10  C   UNL     1       4.912  -5.150  -0.881  0.00  0.00    +0.000 C 
BRANCH  10  11
ATOM     11  C   UNL     1       4.581  -5.931  -2.143  0.00  0.00    +0.000 C 
BRANCH  11  12
ATOM     12  N   UNL     1       4.983  -7.318  -1.954  0.00  0.00    +0.000 NA
ATOM     13  H   UNL     1       4.748  -7.866  -2.778  0.00  0.00    +0.000 HD
ATOM     14  H   UNL     1       4.482  -7.724  -1.166  0.00  0.00    +0.000 HD
ENDBRANCH  11  12
ENDBRANCH  10  11
ENDBRANCH   9  10
ENDBRANCH   1   9
TORSDOF 7
