REMARK  Name = Orphenadrine
REMARK  9 active torsions:
REMARK  status: ('A' for Active; 'I' for Inactive)
REMARK    1  A    between atoms: C_1  and  N_2
REMARK    2  A    between atoms: N_2  and  C_3
REMARK    3  A    between atoms: N_2  and  C_4
REMARK    4  A    between atoms: C_4  and  C_5
REMARK    5  A    between atoms: C_5  and  O_6
REMARK    6  A    between atoms: O_6  and  C_7
REMARK    7  A    between atoms: C_7  and  C_8
REMARK    8  A    between atoms: C_7  and  C_14
REMARK    9  A    between atoms: C_19  and  C_20
REMARK                            x       y       z     vdW  Elec       q    Type
REMARK                         _______ _______ _______ _____ _____    ______ ____
ROOT
ATOM      1  C   UNL     1       6.488  -2.470   0.962  0.00  0.00    +0.000 C 
ENDROOT
BRANCH   1   2
ATOM      2  C   UNL     1       7.047  -3.846   1.457  0.00  0.00    +0.000 A 
ATOM      3  C   UNL     1       6.557  -4.981   0.759  0.00  0.00    +0.000 A 
ATOM      4  C   UNL     1       6.746  -6.283   1.236  0.00  0.00    +0.000 A 
ATOM      5  C   UNL     1       7.454  -6.497   2.408  0.00  0.00    +0.000 A 
ATOM      6  C   UNL     1       8.024  -5.420   3.062  0.00  0.00    +0.000 A 
ATOM      7  C   UNL     1       7.910  -4.106   2.570  0.00  0.00    +0.000 A 
ATOM      8  C   UNL     1       8.691  -3.123   3.413  0.00  0.00    +0.000 C 
ENDBRANCH   1   2
BRANCH   1   9
ATOM      9  C   UNL     1       6.755  -1.260   1.854  0.00  0.00    +0.000 A 
ATOM     10  C   UNL     1       6.540  -1.408   3.227  0.00  0.00    +0.000 A 
ATOM     11  C   UNL     1       6.970  -0.426   4.112  0.00  0.00    +0.000 A 
ATOM     12  C   UNL     1       7.204   0.839   3.646  0.00  0.00    +0.000 A 
ATOM     13  C   UNL     1       7.055   1.109   2.283  0.00  0.00    +0.000 A 
ATOM     14  C   UNL     1       6.945   0.041   1.380  0.00  0.00    +0.000 A 
ENDBRANCH   1   9
BRANCH   1  15
ATOM     15  O   UNL     1       5.026  -2.593   0.841  0.00  0.00    +0.000 OA
BRANCH  15  16
ATOM     16  C   UNL     1       4.430  -1.358   0.433  0.00  0.00    +0.000 C 
BRANCH  16  17
ATOM     17  C   UNL     1       2.912  -1.295   0.483  0.00  0.00    +0.000 C 
BRANCH  17  19
ATOM     18  C   UNL     1       0.978   0.064   0.067  0.00  0.00    +0.000 C 
ATOM     19  N   UNL     1       2.438   0.055   0.082  0.00  0.00    +0.000 NA
ATOM     20  C   UNL     1       2.917   1.127   0.971  0.00  0.00    +0.000 C 
ENDBRANCH  17  19
ENDBRANCH  16  17
ENDBRANCH  15  16
ENDBRANCH   1  15
TORSDOF 6
