REMARK  Name = Oseltamivir
REMARK  13 active torsions:
REMARK  status: ('A' for Active; 'I' for Inactive)
REMARK    1  A    between atoms: C_1  and  C_2
REMARK    2  A    between atoms: C_2  and  O_3
REMARK    3  A    between atoms: O_3  and  C_4
REMARK    4  A    between atoms: C_4  and  C_6
REMARK    5  A    between atoms: C_8  and  O_9
REMARK    6  A    between atoms: O_9  and  C_10
REMARK    7  A    between atoms: C_10  and  C_11
REMARK    8  A    between atoms: C_10  and  C_13
REMARK    9  A    between atoms: C_11  and  C_12
REMARK   10  A    between atoms: C_13  and  C_14
REMARK   11  A    between atoms: C_15  and  N_16
REMARK   12  A    between atoms: C_17  and  C_18
REMARK   13  A    between atoms: C_20  and  N_21
REMARK                            x       y       z     vdW  Elec       q    Type
REMARK                         _______ _______ _______ _____ _____    ______ ____
ROOT
ATOM      1  C   UNL     1       4.468  -2.314   1.815  0.00  0.00    +0.000 C 
ATOM      2  C   UNL     1       5.088  -2.025   2.944  0.00  0.00    +0.000 C 
ATOM      3  C   UNL     1       5.779  -2.978   3.872  0.00  0.00    +0.000 C 
ATOM      4  C   UNL     1       5.297  -4.425   3.814  0.00  0.00    +0.000 C 
ATOM      5  C   UNL     1       4.210  -4.634   2.722  0.00  0.00    +0.000 C 
ATOM      6  C   UNL     1       3.986  -3.657   1.564  0.00  0.00    +0.000 C 
ENDROOT
BRANCH   4   7
ATOM      7  N   UNL     1       6.384  -5.427   3.693  0.00  0.00    +0.000 N 
ATOM      8  C   UNL     1       6.256  -6.789   3.607  0.00  0.00    +0.000 C 
ATOM      9  C   UNL     1       4.886  -7.422   3.620  0.00  0.00    +0.000 C 
ATOM     10  O   UNL     1       7.264  -7.481   3.473  0.00  0.00    +0.000 OA
ATOM     11  H   UNL     1       7.354  -5.123   3.695  0.00  0.00    +0.000 HD
ENDBRANCH   4   7
BRANCH   5  12
ATOM     12  N   UNL     1       2.917  -4.763   3.437  0.00  0.00    +0.000 NA
ATOM     13  H   UNL     1       2.722  -3.865   3.886  0.00  0.00    +0.000 HD
ATOM     14  H   UNL     1       3.018  -5.384   4.242  0.00  0.00    +0.000 HD
ENDBRANCH   5  12
BRANCH   1  15
ATOM     15  C   UNL     1       4.205  -1.203   0.897  0.00  0.00    +0.000 C 
ATOM     16  O   UNL     1       5.084  -0.506   0.380  0.00  0.00    +0.000 OA
BRANCH  15  17
ATOM     17  O   UNL     1       2.879  -1.058   0.786  0.00  0.00    +0.000 OA
BRANCH  17  19
ATOM     18  C   UNL     1       0.959  -0.008  -0.088  0.00  0.00    +0.000 C 
ATOM     19  C   UNL     1       2.471  -0.012  -0.091  0.00  0.00    +0.000 C 
ENDBRANCH  17  19
ENDBRANCH  15  17
ENDBRANCH   1  15
BRANCH   3  20
ATOM     20  O   UNL     1       5.585  -2.433   5.165  0.00  0.00    +0.000 OA
BRANCH  20  21
ATOM     21  C   UNL     1       6.594  -1.476   5.517  0.00  0.00    +0.000 C 
BRANCH  21  22
ATOM     22  C   UNL     1       6.852  -0.351   4.464  0.00  0.00    +0.000 C 
ATOM     23  C   UNL     1       7.573  -0.745   3.145  0.00  0.00    +0.000 C 
ENDBRANCH  21  22
BRANCH  21  24
ATOM     24  C   UNL     1       6.081  -0.908   6.845  0.00  0.00    +0.000 C 
ATOM     25  C   UNL     1       7.057   0.099   7.406  0.00  0.00    +0.000 C 
ENDBRANCH  21  24
ENDBRANCH  20  21
ENDBRANCH   3  20
TORSDOF 9
