REMARK  Name = Osilodrostat
REMARK  2 active torsions:
REMARK  status: ('A' for Active; 'I' for Inactive)
REMARK    1  A    between atoms: C_3  and  C_10
REMARK    2  A    between atoms: C_6  and  C_8
REMARK                            x       y       z     vdW  Elec       q    Type
REMARK                         _______ _______ _______ _____ _____    ______ ____
ROOT
ATOM      1  F   UNL     1       2.917  -0.918   1.639  0.00  0.00    +0.000 F 
ATOM      2  C   UNL     1       3.840  -0.956   0.667  0.00  0.00    +0.000 A 
ATOM      3  C   UNL     1       4.005   0.142  -0.186  0.00  0.00    +0.000 A 
ATOM      4  C   UNL     1       4.964   0.021  -1.203  0.00  0.00    +0.000 A 
ATOM      5  C   UNL     1       5.770  -1.100  -1.329  0.00  0.00    +0.000 A 
ATOM      6  C   UNL     1       5.555  -2.193  -0.501  0.00  0.00    +0.000 A 
ATOM      7  C   UNL     1       4.597  -2.119   0.513  0.00  0.00    +0.000 A 
ENDROOT
BRANCH   3   8
ATOM      8  C   UNL     1       3.168   1.395  -0.008  0.00  0.00    +0.000 C 
ATOM      9  C   UNL     1       3.393   2.097   1.373  0.00  0.00    +0.000 C 
ATOM     10  C   UNL     1       3.919   3.526   1.104  0.00  0.00    +0.000 C 
ATOM     11  C   UNL     1       3.986   3.591  -0.352  0.00  0.00    +0.000 A 
ATOM     12  C   UNL     1       4.394   4.415  -1.358  0.00  0.00    +0.000 A 
ATOM     13  N   UNL     1       4.200   3.786  -2.568  0.00  0.00    +0.000 NA
ATOM     14  C   UNL     1       3.647   2.619  -2.288  0.00  0.00    +0.000 A 
ATOM     15  N   UNL     1       3.516   2.466  -0.950  0.00  0.00    +0.000 N 
ENDBRANCH   3   8
BRANCH   6  16
ATOM     16  C   UNL     1       6.243  -3.419  -0.774  0.00  0.00    +0.000 C 
ATOM     17  N   UNL     1       6.753  -4.419  -1.045  0.00  0.00    +0.000 NA
ENDBRANCH   6  16
TORSDOF 2
