REMARK  Name = Osimertinib
REMARK  14 active torsions:
REMARK  status: ('A' for Active; 'I' for Inactive)
REMARK    1  A    between atoms: C_1  and  O_2
REMARK    2  A    between atoms: O_2  and  C_3
REMARK    3  A    between atoms: C_4  and  N_5
REMARK    4  A    between atoms: C_10  and  C_12
REMARK    5  A    between atoms: N_14  and  C_15
REMARK    6  A    between atoms: C_23  and  N_24
REMARK    7  A    between atoms: C_25  and  C_27
REMARK    8  A    between atoms: C_29  and  N_31
REMARK    9  A    between atoms: N_31  and  C_32
REMARK   10  A    between atoms: N_31  and  C_33
REMARK   11  A    between atoms: C_33  and  C_34
REMARK   12  A    between atoms: C_34  and  N_35
REMARK   13  A    between atoms: N_35  and  C_36
REMARK   14  A    between atoms: N_35  and  C_37
REMARK                            x       y       z     vdW  Elec       q    Type
REMARK                         _______ _______ _______ _____ _____    ______ ____
ROOT
ATOM      1  C   UNL     1       2.934   1.151  -0.345  0.00  0.00    +0.000 A 
ATOM      2  C   UNL     1       3.944   1.145  -1.291  0.00  0.00    +0.000 A 
ATOM      3  C   UNL     1       4.828   2.309  -1.288  0.00  0.00    +0.000 A 
ATOM      4  C   UNL     1       4.507   3.543  -0.585  0.00  0.00    +0.000 A 
ATOM      5  C   UNL     1       3.414   3.521   0.335  0.00  0.00    +0.000 A 
ATOM      6  C   UNL     1       2.671   2.305   0.402  0.00  0.00    +0.000 A 
ENDROOT
BRANCH   2   7
ATOM      7  N   UNL     1       3.888   0.143  -2.398  0.00  0.00    +0.000 N 
ATOM      8  C   UNL     1       3.049  -1.113  -2.513  0.00  0.00    +0.000 A 
ATOM      9  N   UNL     1       3.727  -2.173  -2.064  0.00  0.00    +0.000 NA
ATOM     10  C   UNL     1       3.052  -3.348  -2.071  0.00  0.00    +0.000 A 
ATOM     11  C   UNL     1       1.779  -3.620  -2.601  0.00  0.00    +0.000 A 
ATOM     12  C   UNL     1       1.090  -2.627  -3.278  0.00  0.00    +0.000 A 
ATOM     13  N   UNL     1       1.725  -1.304  -3.140  0.00  0.00    +0.000 NA
ATOM     14  H   UNL     1       4.858  -0.186  -2.464  0.00  0.00    +0.000 HD
BRANCH  12  15
ATOM     15  C   UNL     1      -0.623  -2.889  -3.769  0.00  0.00    +0.000 A 
ATOM     16  C   UNL     1      -0.934  -2.862  -2.366  0.00  0.00    +0.000 A 
ATOM     17  N   UNL     1      -2.251  -2.492  -2.467  0.00  0.00    +0.000 N 
ATOM     18  C   UNL     1      -2.729  -1.330  -3.235  0.00  0.00    +0.000 C 
ATOM     19  C   UNL     1      -2.700  -3.755  -2.693  0.00  0.00    +0.000 A 
ATOM     20  C   UNL     1      -2.116  -3.955  -3.896  0.00  0.00    +0.000 A 
ATOM     21  C   UNL     1      -3.291  -4.814  -4.486  0.00  0.00    +0.000 A 
ATOM     22  C   UNL     1      -4.076  -5.777  -3.535  0.00  0.00    +0.000 A 
ATOM     23  C   UNL     1      -3.638  -5.951  -2.283  0.00  0.00    +0.000 A 
ATOM     24  C   UNL     1      -2.818  -4.925  -1.856  0.00  0.00    +0.000 A 
ENDBRANCH  12  15
ENDBRANCH   2   7
BRANCH   4  25
ATOM     25  N   UNL     1       5.281   4.770  -0.869  0.00  0.00    +0.000 N 
ATOM     26  C   UNL     1       4.749   6.051  -0.935  0.00  0.00    +0.000 C 
ATOM     27  O   UNL     1       3.516   6.297  -1.175  0.00  0.00    +0.000 OA
ATOM     28  H   UNL     1       6.215   4.655  -1.254  0.00  0.00    +0.000 HD
BRANCH  26  29
ATOM     29  C   UNL     1       5.627   7.241  -0.616  0.00  0.00    +0.000 C 
ATOM     30  C   UNL     1       5.196   8.296   0.116  0.00  0.00    +0.000 C 
ENDBRANCH  26  29
ENDBRANCH   4  25
BRANCH   1  32
ATOM     31  C   UNL     1       0.931  -0.014  -0.060  0.00  0.00    +0.000 C 
ATOM     32  O   UNL     1       2.348  -0.045  -0.025  0.00  0.00    +0.000 OA
ENDBRANCH   1  32
BRANCH   5  33
ATOM     33  N   UNL     1       3.080   4.520   1.259  0.00  0.00    +0.000 N 
ATOM     34  C   UNL     1       3.953   5.618   1.607  0.00  0.00    +0.000 C 
BRANCH  33  35
ATOM     35  C   UNL     1       1.795   4.480   1.970  0.00  0.00    +0.000 C 
BRANCH  35  36
ATOM     36  C   UNL     1       1.481   5.793   2.716  0.00  0.00    +0.000 C 
BRANCH  36  37
ATOM     37  N   UNL     1       0.317   5.745   3.606  0.00  0.00    +0.000 NA
ATOM     38  C   UNL     1       0.523   4.711   4.625  0.00  0.00    +0.000 C 
ATOM     39  C   UNL     1       0.205   7.061   4.246  0.00  0.00    +0.000 C 
ENDBRANCH  36  37
ENDBRANCH  35  36
ENDBRANCH  33  35
ENDBRANCH   5  33
TORSDOF 9
