REMARK  Name = Oteracil
REMARK  2 active torsions:
REMARK  status: ('A' for Active; 'I' for Inactive)
REMARK    1  A    between atoms: O_1  and  C_2
REMARK    2  A    between atoms: C_2  and  C_4
REMARK                            x       y       z     vdW  Elec       q    Type
REMARK                         _______ _______ _______ _____ _____    ______ ____
ROOT
ATOM      1  C   UNL     1       3.187  -1.371  -0.220  0.00  0.00    +0.000 A 
ATOM      2  N   UNL     1       2.768  -2.223  -1.090  0.00  0.00    +0.000 NA
ATOM      3  C   UNL     1       3.492  -3.380  -1.248  0.00  0.00    +0.000 A 
ATOM      4  O   UNL     1       3.214  -4.214  -2.098  0.00  0.00    +0.000 OA
ATOM      5  N   UNL     1       4.552  -3.602  -0.417  0.00  0.00    +0.000 N 
ATOM      6  C   UNL     1       4.946  -2.740   0.548  0.00  0.00    +0.000 A 
ATOM      7  O   UNL     1       5.857  -2.998   1.327  0.00  0.00    +0.000 OA
ATOM      8  N   UNL     1       4.254  -1.578   0.604  0.00  0.00    +0.000 N 
ATOM      9  H   UNL     1       5.054  -4.470  -0.526  0.00  0.00    +0.000 HD
ATOM     10  H   UNL     1       4.546  -0.880   1.277  0.00  0.00    +0.000 HD
ENDROOT
BRANCH   1  11
ATOM     11  C   UNL     1       2.489  -0.024  -0.046  0.00  0.00    +0.000 C 
ATOM     12  O   UNL     1       3.143   0.986   0.137  0.00  0.00    +0.000 OA
BRANCH  11  13
ATOM     13  O   UNL     1       1.152  -0.096  -0.037  0.00  0.00    +0.000 OA
ATOM     14  H   UNL     1       0.805  -0.985  -0.256  0.00  0.00    +0.000 HD
ENDBRANCH  11  13
ENDBRANCH   1  11
TORSDOF 2
