REMARK  Name = Oteseconazole
REMARK  10 active torsions:
REMARK  status: ('A' for Active; 'I' for Inactive)
REMARK    1  A    between atoms: O_1  and  C_2
REMARK    2  A    between atoms: C_2  and  C_3
REMARK    3  A    between atoms: C_2  and  C_9
REMARK    4  A    between atoms: C_2  and  C_17
REMARK    5  A    between atoms: C_3  and  N_4
REMARK    6  A    between atoms: C_17  and  C_20
REMARK    7  A    between atoms: C_23  and  C_26
REMARK    8  A    between atoms: C_29  and  O_30
REMARK    9  A    between atoms: O_30  and  C_31
REMARK   10  A    between atoms: C_31  and  C_32
REMARK                            x       y       z     vdW  Elec       q    Type
REMARK                         _______ _______ _______ _____ _____    ______ ____
ROOT
ATOM      1  C   UNL     1       3.000   0.915  -1.362  0.00  0.00    +0.000 C 
ATOM      2  F   UNL     1       2.432   0.355  -2.482  0.00  0.00    +0.000 F 
ATOM      3  F   UNL     1       2.392   2.142  -1.269  0.00  0.00    +0.000 F 
ENDROOT
BRANCH   1   4
ATOM      4  C   UNL     1       4.513   1.078  -1.538  0.00  0.00    +0.000 A 
ATOM      5  C   UNL     1       5.207   2.086  -0.869  0.00  0.00    +0.000 A 
ATOM      6  C   UNL     1       6.596   2.042  -0.788  0.00  0.00    +0.000 A 
ATOM      7  C   UNL     1       7.287   0.999  -1.394  0.00  0.00    +0.000 A 
ATOM      8  C   UNL     1       6.524   0.070  -2.097  0.00  0.00    +0.000 A 
ATOM      9  N   UNL     1       5.177   0.116  -2.232  0.00  0.00    +0.000 NA
BRANCH   7  10
ATOM     10  C   UNL     1       8.737   0.877  -1.335  0.00  0.00    +0.000 A 
ATOM     11  C   UNL     1       9.454   0.697  -2.525  0.00  0.00    +0.000 A 
ATOM     12  C   UNL     1      10.831   0.505  -2.504  0.00  0.00    +0.000 A 
ATOM     13  C   UNL     1      11.526   0.564  -1.298  0.00  0.00    +0.000 A 
ATOM     14  C   UNL     1      10.826   0.751  -0.105  0.00  0.00    +0.000 A 
ATOM     15  C   UNL     1       9.438   0.903  -0.123  0.00  0.00    +0.000 A 
BRANCH  13  16
ATOM     16  O   UNL     1      12.880   0.441  -1.416  0.00  0.00    +0.000 OA
BRANCH  16  17
ATOM     17  C   UNL     1      13.640   0.651  -0.222  0.00  0.00    +0.000 C 
BRANCH  17  18
ATOM     18  C   UNL     1      15.125   0.614  -0.528  0.00  0.00    +0.000 C 
ATOM     19  F   UNL     1      15.489  -0.556  -1.094  0.00  0.00    +0.000 F 
ATOM     20  F   UNL     1      15.493   1.617  -1.354  0.00  0.00    +0.000 F 
ATOM     21  F   UNL     1      15.838   0.750   0.616  0.00  0.00    +0.000 F 
ENDBRANCH  17  18
ENDBRANCH  16  17
ENDBRANCH  13  16
ENDBRANCH   7  10
ENDBRANCH   1   4
BRANCH   1  22
ATOM     22  C   UNL     1       2.520   0.032  -0.094  0.00  0.00    +0.000 C 
BRANCH  22  23
ATOM     23  C   UNL     1       2.947  -1.456  -0.137  0.00  0.00    +0.000 A 
ATOM     24  C   UNL     1       2.082  -2.545   0.075  0.00  0.00    +0.000 A 
ATOM     25  C   UNL     1       2.533  -3.861  -0.097  0.00  0.00    +0.000 A 
ATOM     26  C   UNL     1       3.812  -4.112  -0.576  0.00  0.00    +0.000 A 
ATOM     27  F   UNL     1       4.225  -5.365  -0.773  0.00  0.00    +0.000 F 
ATOM     28  C   UNL     1       4.701  -3.069  -0.739  0.00  0.00    +0.000 A 
ATOM     29  C   UNL     1       4.279  -1.808  -0.361  0.00  0.00    +0.000 A 
ATOM     30  F   UNL     1       5.233  -0.938   0.003  0.00  0.00    +0.000 F 
ENDBRANCH  22  23
BRANCH  22  31
ATOM     31  O   UNL     1       1.055   0.047  -0.095  0.00  0.00    +0.000 OA
ATOM     32  H   UNL     1       0.716  -0.457   0.661  0.00  0.00    +0.000 HD
ENDBRANCH  22  31
BRANCH  22  33
ATOM     33  C   UNL     1       2.962   0.658   1.252  0.00  0.00    +0.000 C 
BRANCH  33  34
ATOM     34  N   UNL     1       2.457   1.995   1.478  0.00  0.00    +0.000 N 
ATOM     35  C   UNL     1       1.204   2.400   1.809  0.00  0.00    +0.000 A 
ATOM     36  N   UNL     1       1.180   3.713   1.813  0.00  0.00    +0.000 NA
ATOM     37  N   UNL     1       2.460   4.111   1.523  0.00  0.00    +0.000 NA
ATOM     38  N   UNL     1       3.260   3.063   1.397  0.00  0.00    +0.000 NA
ENDBRANCH  33  34
ENDBRANCH  22  33
ENDBRANCH   1  22
TORSDOF 10
