REMARK  Name = Ouabain
REMARK  14 active torsions:
REMARK  status: ('A' for Active; 'I' for Inactive)
REMARK    1  A    between atoms: C_5  and  O_6
REMARK    2  A    between atoms: C_8  and  O_33
REMARK    3  A    between atoms: C_10  and  O_11
REMARK    4  A    between atoms: C_12  and  C_13
REMARK    5  A    between atoms: C_13  and  O_14
REMARK    6  A    between atoms: C_17  and  O_18
REMARK    7  A    between atoms: C_20  and  C_21
REMARK    8  A    between atoms: C_22  and  C_27
REMARK    9  A    between atoms: C_25  and  O_26
REMARK   10  A    between atoms: O_33  and  C_34
REMARK   11  A    between atoms: C_36  and  C_37
REMARK   12  A    between atoms: C_38  and  O_39
REMARK   13  A    between atoms: C_40  and  O_41
REMARK   14  A    between atoms: C_42  and  O_43
REMARK                            x       y       z     vdW  Elec       q    Type
REMARK                         _______ _______ _______ _____ _____    ______ ____
ROOT
ATOM      1  C   UNL     1       2.238  -0.119  -0.001  0.00  0.00    +0.000 C 
ATOM      2  C   UNL     1       2.991  -1.389  -0.370  0.00  0.00    +0.000 C 
ATOM      3  C   UNL     1       2.663  -2.385   0.643  0.00  0.00    +0.000 C 
ATOM      4  C   UNL     1       2.976  -1.985   2.156  0.00  0.00    +0.000 C 
ATOM      5  C   UNL     1       2.487  -2.864   3.389  0.00  0.00    +0.000 C 
ATOM      6  C   UNL     1       1.923  -4.126   2.894  0.00  0.00    +0.000 C 
ATOM      7  C   UNL     1       0.848  -3.398   1.921  0.00  0.00    +0.000 C 
ATOM      8  C   UNL     1       0.694  -1.533   2.164  0.00  0.00    +0.000 C 
ATOM      9  C   UNL     1       2.206  -0.705   2.392  0.00  0.00    +0.000 C 
ATOM     10  C   UNL     1       2.613   0.391   1.345  0.00  0.00    +0.000 C 
ATOM     11  C   UNL     1       2.161   1.843   1.670  0.00  0.00    +0.000 C 
ATOM     12  C   UNL     1       2.609   2.828   0.615  0.00  0.00    +0.000 C 
ATOM     13  C   UNL     1       2.100   2.452  -0.750  0.00  0.00    +0.000 C 
ATOM     14  C   UNL     1       2.892   3.649  -1.829  0.00  0.00    +0.000 C 
ATOM     15  C   UNL     1       0.682   2.481  -1.124  0.00  0.00    +0.000 C 
ATOM     16  C   UNL     1       1.267   1.911  -2.507  0.00  0.00    +0.000 C 
ATOM     17  C   UNL     1       3.067   1.321  -2.191  0.00  0.00    +0.000 C 
ATOM     18  C   UNL     1       2.344   0.779  -1.116  0.00  0.00    +0.000 C 
ENDROOT
BRANCH  15  19
ATOM     19  C   UNL     1       0.047   3.806  -0.838  0.00  0.00    +0.000 C 
ATOM     20  C   UNL     1       0.164   4.893  -1.592  0.00  0.00    +0.000 C 
ATOM     21  C   UNL     1      -0.390   5.992  -0.847  0.00  0.00    +0.000 C 
ATOM     22  O   UNL     1      -0.299   7.189  -1.221  0.00  0.00    +0.000 OA
ATOM     23  O   UNL     1      -0.970   5.560   0.283  0.00  0.00    +0.000 OA
ATOM     24  C   UNL     1      -0.737   4.147   0.396  0.00  0.00    +0.000 C 
ENDBRANCH  15  19
BRANCH   4  25
ATOM     25  O   UNL     1       4.371  -1.894   2.229  0.00  0.00    +0.000 OA
ATOM     26  H   UNL     1       4.663  -2.762   1.889  0.00  0.00    +0.000 HD
ENDBRANCH   4  25
BRANCH   8  27
ATOM     27  O   UNL     1      -0.165  -1.107   3.217  0.00  0.00    +0.000 OA
ATOM     28  H   UNL     1       0.400  -0.677   3.889  0.00  0.00    +0.000 HD
ENDBRANCH   8  27
BRANCH  11  29
ATOM     29  O   UNL     1       0.769   1.925   1.893  0.00  0.00    +0.000 OA
ATOM     30  H   UNL     1       0.301   1.350   1.268  0.00  0.00    +0.000 HD
ENDBRANCH  11  29
BRANCH  18  31
ATOM     31  O   UNL     1       1.752  -0.208  -2.131  0.00  0.00    +0.000 OA
ATOM     32  H   UNL     1       2.482  -0.665  -2.622  0.00  0.00    +0.000 HD
ENDBRANCH  18  31
BRANCH   9  33
ATOM     33  C   UNL     1       2.708  -0.000   3.728  0.00  0.00    +0.000 C 
BRANCH  33  34
ATOM     34  O   UNL     1       2.958  -0.736   4.898  0.00  0.00    +0.000 OA
ATOM     35  H   UNL     1       3.743  -1.289   4.743  0.00  0.00    +0.000 HD
ENDBRANCH  33  34
ENDBRANCH   9  33
BRANCH   6  36
ATOM     36  O   UNL     1       1.370  -5.023   3.911  0.00  0.00    +0.000 OA
BRANCH  36  37
ATOM     37  C   UNL     1       0.005  -4.745   3.873  0.00  0.00    +0.000 C 
ATOM     38  O   UNL     1      -0.105  -3.374   4.263  0.00  0.00    +0.000 OA
ATOM     39  C   UNL     1       0.028  -3.195   5.677  0.00  0.00    +0.000 C 
ATOM     40  C   UNL     1       0.271  -1.751   6.096  0.00  0.00    +0.000 C 
ATOM     41  C   UNL     1      -1.332  -3.609   6.163  0.00  0.00    +0.000 C 
ATOM     42  C   UNL     1      -1.544  -5.073   5.755  0.00  0.00    +0.000 C 
ATOM     43  C   UNL     1      -1.318  -5.310   4.284  0.00  0.00    +0.000 C 
BRANCH  41  44
ATOM     44  O   UNL     1      -1.454  -3.432   7.561  0.00  0.00    +0.000 OA
ATOM     45  H   UNL     1      -0.818  -4.038   7.973  0.00  0.00    +0.000 HD
ENDBRANCH  41  44
BRANCH  42  46
ATOM     46  O   UNL     1      -2.886  -5.435   6.047  0.00  0.00    +0.000 OA
ATOM     47  H   UNL     1      -3.424  -4.852   5.470  0.00  0.00    +0.000 HD
ENDBRANCH  42  46
BRANCH  43  48
ATOM     48  O   UNL     1      -2.313  -4.494   3.544  0.00  0.00    +0.000 OA
ATOM     49  H   UNL     1      -1.956  -3.570   3.524  0.00  0.00    +0.000 HD
ENDBRANCH  43  48
ENDBRANCH  36  37
ENDBRANCH   6  36
TORSDOF 12
