REMARK  Name = Oxacillin
REMARK  8 active torsions:
REMARK  status: ('A' for Active; 'I' for Inactive)
REMARK    1  A    between atoms: C_4  and  C_5
REMARK    2  A    between atoms: C_4  and  C_6
REMARK    3  A    between atoms: CA_7  and  C_27
REMARK    4  A    between atoms: CA_11  and  N_12
REMARK    5  A    between atoms: C_13  and  C_15
REMARK    6  A    between atoms: C_16  and  C_17
REMARK    7  A    between atoms: C_20  and  C_21
REMARK    8  A    between atoms: C_27  and  O_28
REMARK                            x       y       z     vdW  Elec       q    Type
REMARK                         _______ _______ _______ _____ _____    ______ ____
ROOT
ATOM      1  N   UNL     1       3.371   1.769  -1.345  0.00  0.00    +0.000 N 
ATOM      2  C   UNL     1       3.962   3.011  -1.469  0.00  0.00    +0.000 C 
ATOM      3  O   UNL     1       3.972   3.810  -0.539  0.00  0.00    +0.000 OA
ATOM      4  H   UNL     1       3.432   1.101  -2.105  0.00  0.00    +0.000 HD
ENDROOT
BRANCH   1  14
ATOM      5  C   UNL     1       2.060   0.007   0.032  0.00  0.00    +0.000 C 
ATOM      6  S   UNL     1       2.494  -1.250  -1.222  0.00  0.00    +0.000 S 
ATOM      7  C   UNL     1       2.841  -2.508   0.123  0.00  0.00    +0.000 C 
ATOM      8  C   UNL     1       3.781  -3.552  -0.486  0.00  0.00    +0.000 C 
ATOM      9  C   UNL     1       1.466  -3.099   0.490  0.00  0.00    +0.000 C 
ATOM     10  CA  UNL     1       3.526  -1.677   1.234  0.00  0.00    +0.000 C 
ATOM     11  N   UNL     1       2.906  -0.334   1.190  0.00  0.00    +0.000 N 
ATOM     12  C   UNL     1       3.673   0.799   1.062  0.00  0.00    +0.000 C 
ATOM     13  O   UNL     1       4.759   1.076   1.533  0.00  0.00    +0.000 OA
ATOM     14  CA  UNL     1       2.745   1.380  -0.043  0.00  0.00    +0.000 C 
BRANCH  10  15
ATOM     15  C   UNL     1       3.565  -2.230   2.680  0.00  0.00    +0.000 C 
ATOM     16  OXT UNL     1       4.014  -1.584   3.620  0.00  0.00    +0.000 OA
BRANCH  15  17
ATOM     17  O   UNL     1       3.121  -3.479   2.923  0.00  0.00    +0.000 OA
ATOM     18  H   UNL     1       2.958  -4.106   2.202  0.00  0.00    +0.000 HD
ENDBRANCH  15  17
ENDBRANCH  10  15
ENDBRANCH   1  14
BRANCH   2  19
ATOM     19  C   UNL     1       4.563   3.326  -2.743  0.00  0.00    +0.000 A 
ATOM     20  C   UNL     1       4.077   3.113  -4.014  0.00  0.00    +0.000 A 
ATOM     21  C   UNL     1       2.856   2.513  -4.574  0.00  0.00    +0.000 C 
ATOM     22  O   UNL     1       4.936   3.648  -4.922  0.00  0.00    +0.000 OA
ATOM     23  N   UNL     1       6.002   4.229  -4.267  0.00  0.00    +0.000 NA
ATOM     24  C   UNL     1       5.781   4.034  -2.958  0.00  0.00    +0.000 A 
BRANCH  24  25
ATOM     25  C   UNL     1       6.764   4.420  -1.958  0.00  0.00    +0.000 A 
ATOM     26  C   UNL     1       7.208   5.741  -1.843  0.00  0.00    +0.000 A 
ATOM     27  C   UNL     1       8.239   6.049  -0.953  0.00  0.00    +0.000 A 
ATOM     28  C   UNL     1       8.764   5.062  -0.117  0.00  0.00    +0.000 A 
ATOM     29  C   UNL     1       8.294   3.754  -0.199  0.00  0.00    +0.000 A 
ATOM     30  C   UNL     1       7.304   3.432  -1.123  0.00  0.00    +0.000 A 
ENDBRANCH  24  25
ENDBRANCH   2  19
TORSDOF 5
