REMARK  Name = Oxamniquine
REMARK  8 active torsions:
REMARK  status: ('A' for Active; 'I' for Inactive)
REMARK    1  A    between atoms: C_1  and  C_2
REMARK    2  A    between atoms: C_2  and  C_3
REMARK    3  A    between atoms: C_2  and  N_4
REMARK    4  A    between atoms: N_4  and  C_5
REMARK    5  A    between atoms: C_5  and  C_6
REMARK    6  A    between atoms: C_11  and  C_12
REMARK    7  A    between atoms: C_12  and  O_13
REMARK    8  A    between atoms: C_14  and  N_18
REMARK                            x       y       z     vdW  Elec       q    Type
REMARK                         _______ _______ _______ _____ _____    ______ ____
ROOT
ATOM      1  C   UNL     1       5.112   2.449  -1.475  0.00  0.00    +0.000 C 
ATOM      2  C   UNL     1       4.354   2.992  -2.690  0.00  0.00    +0.000 C 
ATOM      3  C   UNL     1       4.176   1.928  -3.772  0.00  0.00    +0.000 C 
ATOM      4  C   UNL     1       5.369   1.004  -3.887  0.00  0.00    +0.000 A 
ATOM      5  C   UNL     1       5.416   0.045  -4.910  0.00  0.00    +0.000 A 
ATOM      6  C   UNL     1       6.478  -0.897  -5.042  0.00  0.00    +0.000 A 
ATOM      7  C   UNL     1       7.452  -0.896  -4.020  0.00  0.00    +0.000 A 
ATOM      8  C   UNL     1       7.403   0.084  -2.998  0.00  0.00    +0.000 A 
ATOM      9  C   UNL     1       6.406   1.055  -2.949  0.00  0.00    +0.000 A 
ATOM     10  N   UNL     1       6.443   2.061  -1.968  0.00  0.00    +0.000 N 
ATOM     11  H   UNL     1       7.173   1.987  -1.268  0.00  0.00    +0.000 HD
ENDROOT
BRANCH   7  12
ATOM     12  N   UNL     1       8.591  -1.837  -3.908  0.00  0.00    +0.000 N 
ATOM     13  O   UNL     1       8.755  -2.692  -4.784  0.00  0.00    +0.000 OA
ATOM     14  O   UNL     1       9.359  -1.709  -2.948  0.00  0.00    +0.000 OA
ENDBRANCH   7  12
BRANCH   1  15
ATOM     15  C   UNL     1       4.483   1.244  -0.725  0.00  0.00    +0.000 C 
BRANCH  15  16
ATOM     16  N   UNL     1       3.024   1.188  -0.694  0.00  0.00    +0.000 NA
ATOM     17  H   UNL     1       2.657   1.995  -0.190  0.00  0.00    +0.000 HD
BRANCH  16  19
ATOM     18  C   UNL     1       1.032  -0.034  -0.058  0.00  0.00    +0.000 C 
ATOM     19  C   UNL     1       2.557  -0.056  -0.063  0.00  0.00    +0.000 C 
ATOM     20  C   UNL     1       3.037  -1.320  -0.792  0.00  0.00    +0.000 C 
ENDBRANCH  16  19
ENDBRANCH  15  16
ENDBRANCH   1  15
BRANCH   6  21
ATOM     21  C   UNL     1       6.350  -1.738  -6.303  0.00  0.00    +0.000 C 
BRANCH  21  22
ATOM     22  O   UNL     1       7.384  -2.584  -6.745  0.00  0.00    +0.000 OA
ATOM     23  H   UNL     1       8.220  -2.329  -6.317  0.00  0.00    +0.000 HD
ENDBRANCH  21  22
ENDBRANCH   6  21
TORSDOF 6
