REMARK  Name = Oxandrolone
REMARK  4 active torsions:
REMARK  status: ('A' for Active; 'I' for Inactive)
REMARK    1  A    between atoms: C_5  and  C_6
REMARK    2  A    between atoms: C_5  and  O_7
REMARK    3  A    between atoms: C_8  and  C_9
REMARK    4  A    between atoms: C_25  and  C_26
REMARK                            x       y       z     vdW  Elec       q    Type
REMARK                         _______ _______ _______ _____ _____    ______ ____
ROOT
ATOM      1  C   UNL     1       1.713   0.016  -0.137  0.00  0.00    +0.000 C 
ATOM      2  C   UNL     1       2.126   0.019  -1.495  0.00  0.00    +0.000 C 
ATOM      3  C   UNL     1       3.171  -0.314  -0.505  0.00  0.00    +0.000 C 
ATOM      4  C   UNL     1       2.398  -0.787   1.386  0.00  0.00    +0.000 C 
ATOM      5  C   UNL     1       0.801  -0.945   1.889  0.00  0.00    +0.000 C 
ATOM      6  C   UNL     1       2.625  -1.586   0.279  0.00  0.00    +0.000 C 
ATOM      7  C   UNL     1       1.975  -2.817  -0.152  0.00  0.00    +0.000 C 
ATOM      8  C   UNL     1       4.412  -1.536   0.790  0.00  0.00    +0.000 C 
ATOM      9  C   UNL     1       4.745  -0.068   1.556  0.00  0.00    +0.000 C 
ATOM     10  C   UNL     1       4.121   1.348   0.998  0.00  0.00    +0.000 C 
ATOM     11  C   UNL     1       2.447   1.423   0.778  0.00  0.00    +0.000 C 
ATOM     12  C   UNL     1       1.992   2.675   0.072  0.00  0.00    +0.000 C 
ATOM     13  C   UNL     1       2.570   3.906   0.714  0.00  0.00    +0.000 C 
ATOM     14  C   UNL     1       4.093   3.875   0.849  0.00  0.00    +0.000 C 
ATOM     15  C   UNL     1       4.763   4.047  -0.527  0.00  0.00    +0.000 C 
ATOM     16  C   UNL     1       6.208   4.131  -0.147  0.00  0.00    +0.000 C 
ATOM     17  O   UNL     1       6.759   5.104   0.349  0.00  0.00    +0.000 OA
ATOM     18  O   UNL     1       6.639   2.861   0.054  0.00  0.00    +0.000 OA
ATOM     19  C   UNL     1       6.257   2.542   1.403  0.00  0.00    +0.000 C 
ATOM     20  C   UNL     1       4.681   2.615   1.619  0.00  0.00    +0.000 C 
ATOM     21  C   UNL     1       4.208   2.621   3.066  0.00  0.00    +0.000 C 
ENDROOT
BRANCH   4  22
ATOM     22  O   UNL     1       2.917  -1.761   2.389  0.00  0.00    +0.000 OA
ATOM     23  H   UNL     1       2.329  -1.910   3.150  0.00  0.00    +0.000 HD
ENDBRANCH   4  22
TORSDOF 1
