REMARK  Name = Oxaprozin
REMARK  6 active torsions:
REMARK  status: ('A' for Active; 'I' for Inactive)
REMARK    1  A    between atoms: O_1  and  C_2
REMARK    2  A    between atoms: C_2  and  C_4
REMARK    3  A    between atoms: C_4  and  C_5
REMARK    4  A    between atoms: C_5  and  C_6
REMARK    5  A    between atoms: C_8  and  C_17
REMARK    6  A    between atoms: C_9  and  C_11
REMARK                            x       y       z     vdW  Elec       q    Type
REMARK                         _______ _______ _______ _____ _____    ______ ____
ROOT
ATOM      1  C   UNL     1       5.303  -0.876   2.313  0.00  0.00    +0.000 A 
ATOM      2  N   UNL     1       5.392  -2.132   2.707  0.00  0.00    +0.000 NA
ATOM      3  C   UNL     1       6.042  -2.046   3.908  0.00  0.00    +0.000 A 
ATOM      4  C   UNL     1       6.381  -0.737   4.185  0.00  0.00    +0.000 A 
ATOM      5  O   UNL     1       5.884   0.039   3.164  0.00  0.00    +0.000 OA
ENDROOT
BRANCH   4   6
ATOM      6  C   UNL     1       7.191  -0.114   5.226  0.00  0.00    +0.000 A 
ATOM      7  C   UNL     1       6.693   0.903   6.045  0.00  0.00    +0.000 A 
ATOM      8  C   UNL     1       7.511   1.483   7.023  0.00  0.00    +0.000 A 
ATOM      9  C   UNL     1       8.798   0.995   7.250  0.00  0.00    +0.000 A 
ATOM     10  C   UNL     1       9.282  -0.061   6.486  0.00  0.00    +0.000 A 
ATOM     11  C   UNL     1       8.484  -0.606   5.479  0.00  0.00    +0.000 A 
ENDBRANCH   4   6
BRANCH   3  12
ATOM     12  C   UNL     1       6.433  -3.160   4.738  0.00  0.00    +0.000 A 
ATOM     13  C   UNL     1       6.179  -3.126   6.117  0.00  0.00    +0.000 A 
ATOM     14  C   UNL     1       6.804  -4.036   6.964  0.00  0.00    +0.000 A 
ATOM     15  C   UNL     1       7.604  -5.043   6.428  0.00  0.00    +0.000 A 
ATOM     16  C   UNL     1       7.809  -5.118   5.049  0.00  0.00    +0.000 A 
ATOM     17  C   UNL     1       7.228  -4.174   4.201  0.00  0.00    +0.000 A 
ENDBRANCH   3  12
BRANCH   1  18
ATOM     18  C   UNL     1       4.611  -0.375   1.093  0.00  0.00    +0.000 C 
BRANCH  18  19
ATOM     19  C   UNL     1       3.091  -0.449   1.268  0.00  0.00    +0.000 C 
BRANCH  19  20
ATOM     20  C   UNL     1       2.391  -0.045  -0.003  0.00  0.00    +0.000 C 
ATOM     21  O   UNL     1       2.964   0.290  -1.034  0.00  0.00    +0.000 OA
BRANCH  20  22
ATOM     22  O   UNL     1       1.042  -0.076   0.075  0.00  0.00    +0.000 OA
ATOM     23  H   UNL     1       0.670  -0.363   0.930  0.00  0.00    +0.000 HD
ENDBRANCH  20  22
ENDBRANCH  19  20
ENDBRANCH  18  19
ENDBRANCH   1  18
TORSDOF 6
