REMARK  Name = Oxatomide
REMARK  7 active torsions:
REMARK  status: ('A' for Active; 'I' for Inactive)
REMARK    1  A    between atoms: N_10  and  C_11
REMARK    2  A    between atoms: C_11  and  C_12
REMARK    3  A    between atoms: C_12  and  C_13
REMARK    4  A    between atoms: C_13  and  N_14
REMARK    5  A    between atoms: N_17  and  C_20
REMARK    6  A    between atoms: C_20  and  C_21
REMARK    7  A    between atoms: C_20  and  C_27
REMARK                            x       y       z     vdW  Elec       q    Type
REMARK                         _______ _______ _______ _____ _____    ______ ____
ROOT
ATOM      1  N   UNL     1       4.545  -5.472   0.132  0.00  0.00    +0.000 NA
ATOM      2  C   UNL     1       5.050  -5.171   1.489  0.00  0.00    +0.000 C 
ATOM      3  C   UNL     1       4.487  -6.094   2.568  0.00  0.00    +0.000 C 
ATOM      4  N   UNL     1       4.898  -7.486   2.327  0.00  0.00    +0.000 NA
ATOM      5  C   UNL     1       4.257  -7.839   1.036  0.00  0.00    +0.000 C 
ATOM      6  C   UNL     1       4.686  -6.917  -0.136  0.00  0.00    +0.000 C 
ENDROOT
BRANCH   1   7
ATOM      7  C   UNL     1       3.230  -4.839  -0.034  0.00  0.00    +0.000 C 
BRANCH   7   8
ATOM      8  C   UNL     1       3.594  -3.363  -0.126  0.00  0.00    +0.000 C 
BRANCH   8   9
ATOM      9  C   UNL     1       2.531  -2.322  -0.043  0.00  0.00    +0.000 C 
BRANCH   9  19
ATOM     10  O   UNL     1       1.037   0.176   0.043  0.00  0.00    +0.000 OA
ATOM     11  C   UNL     1       2.266   0.154   0.034  0.00  0.00    +0.000 A 
ATOM     12  N   UNL     1       3.105   1.269   0.049  0.00  0.00    +0.000 N 
ATOM     13  C   UNL     1       4.430   0.845   0.046  0.00  0.00    +0.000 A 
ATOM     14  C   UNL     1       4.449  -0.547   0.028  0.00  0.00    +0.000 A 
ATOM     15  C   UNL     1       5.673  -1.207   0.031  0.00  0.00    +0.000 A 
ATOM     16  C   UNL     1       6.855  -0.462   0.047  0.00  0.00    +0.000 A 
ATOM     17  C   UNL     1       6.810   0.935   0.053  0.00  0.00    +0.000 A 
ATOM     18  C   UNL     1       5.583   1.608   0.052  0.00  0.00    +0.000 A 
ATOM     19  N   UNL     1       3.091  -0.982   0.002  0.00  0.00    +0.000 N 
ATOM     20  H   UNL     1       2.766   2.216   0.056  0.00  0.00    +0.000 HD
ENDBRANCH   9  19
ENDBRANCH   8   9
ENDBRANCH   7   8
ENDBRANCH   1   7
BRANCH   4  21
ATOM     21  C   UNL     1       6.409  -7.565   2.347  0.00  0.00    +0.000 C 
BRANCH  21  22
ATOM     22  C   UNL     1       6.908  -6.981   3.691  0.00  0.00    +0.000 A 
ATOM     23  C   UNL     1       6.413  -7.522   4.896  0.00  0.00    +0.000 A 
ATOM     24  C   UNL     1       6.799  -7.004   6.124  0.00  0.00    +0.000 A 
ATOM     25  C   UNL     1       7.736  -5.977   6.167  0.00  0.00    +0.000 A 
ATOM     26  C   UNL     1       8.283  -5.469   4.986  0.00  0.00    +0.000 A 
ATOM     27  C   UNL     1       7.833  -5.929   3.747  0.00  0.00    +0.000 A 
ENDBRANCH  21  22
BRANCH  21  28
ATOM     28  C   UNL     1       6.949  -8.974   2.099  0.00  0.00    +0.000 A 
ATOM     29  C   UNL     1       6.641  -9.683   0.931  0.00  0.00    +0.000 A 
ATOM     30  C   UNL     1       6.791 -11.061   0.881  0.00  0.00    +0.000 A 
ATOM     31  C   UNL     1       7.508 -11.701   1.879  0.00  0.00    +0.000 A 
ATOM     32  C   UNL     1       8.079 -10.961   2.904  0.00  0.00    +0.000 A 
ATOM     33  C   UNL     1       7.763  -9.619   3.036  0.00  0.00    +0.000 A 
ENDBRANCH  21  28
ENDBRANCH   4  21
TORSDOF 7
