REMARK  Name = Oxazepam
REMARK  2 active torsions:
REMARK  status: ('A' for Active; 'I' for Inactive)
REMARK    1  A    between atoms: O_1  and  C_2
REMARK    2  A    between atoms: C_4  and  C_5
REMARK                            x       y       z     vdW  Elec       q    Type
REMARK                         _______ _______ _______ _____ _____    ______ ____
ROOT
ATOM      1  C   UNL     1       2.471   0.026   0.052  0.00  0.00    +0.000 C 
ATOM      2  N   UNL     1       2.945  -1.172   0.748  0.00  0.00    +0.000 NA
ATOM      3  C   UNL     1       4.211  -1.422   0.809  0.00  0.00    +0.000 C 
ATOM      4  C   UNL     1       5.292  -0.607   0.176  0.00  0.00    +0.000 A 
ATOM      5  C   UNL     1       5.305   0.794   0.222  0.00  0.00    +0.000 A 
ATOM      6  N   UNL     1       4.299   1.564   0.813  0.00  0.00    +0.000 N 
ATOM      7  C   UNL     1       2.954   1.295   0.809  0.00  0.00    +0.000 C 
ATOM      8  O   UNL     1       2.201   2.146   1.303  0.00  0.00    +0.000 OA
ATOM      9  C   UNL     1       6.389   1.495  -0.322  0.00  0.00    +0.000 A 
ATOM     10  C   UNL     1       7.442   0.811  -0.931  0.00  0.00    +0.000 A 
ATOM     11  C   UNL     1       7.438  -0.579  -0.954  0.00  0.00    +0.000 A 
ATOM     12 CL   UNL     1       8.751  -1.429  -1.667  0.00  0.00    +0.000 Cl
ATOM     13  C   UNL     1       6.377  -1.289  -0.400  0.00  0.00    +0.000 A 
ATOM     14  H   UNL     1       4.506   2.502   1.135  0.00  0.00    +0.000 HD
ENDROOT
BRANCH   3  15
ATOM     15  C   UNL     1       4.649  -2.610   1.606  0.00  0.00    +0.000 A 
ATOM     16  C   UNL     1       4.139  -3.883   1.337  0.00  0.00    +0.000 A 
ATOM     17  C   UNL     1       4.506  -4.957   2.153  0.00  0.00    +0.000 A 
ATOM     18  C   UNL     1       5.445  -4.776   3.172  0.00  0.00    +0.000 A 
ATOM     19  C   UNL     1       6.024  -3.525   3.374  0.00  0.00    +0.000 A 
ATOM     20  C   UNL     1       5.589  -2.431   2.628  0.00  0.00    +0.000 A 
ENDBRANCH   3  15
BRANCH   1  21
ATOM     21  O   UNL     1       1.060   0.057  -0.102  0.00  0.00    +0.000 OA
ATOM     22  H   UNL     1       0.813  -0.858  -0.301  0.00  0.00    +0.000 HD
ENDBRANCH   1  21
TORSDOF 2
