REMARK  Name = Oxcarbazepine
REMARK  0 active torsions:
REMARK  status: ('A' for Active; 'I' for Inactive)
REMARK                            x       y       z     vdW  Elec       q    Type
REMARK                         _______ _______ _______ _____ _____    ______ ____
ROOT
ATOM      1  N   UNL     1       1.170   0.067   0.011  0.00  0.00    +0.000 N 
ATOM      2  C   UNL     1       2.517   0.008  -0.166  0.00  0.00    +0.000 C 
ATOM      3  O   UNL     1       3.094  -0.997   0.258  0.00  0.00    +0.000 OA
ATOM      4  N   UNL     1       3.170   1.054  -0.828  0.00  0.00    +0.000 N 
ATOM      5  C   UNL     1       4.153   0.663  -1.801  0.00  0.00    +0.000 A 
ATOM      6  C   UNL     1       3.757  -0.167  -2.863  0.00  0.00    +0.000 A 
ATOM      7  C   UNL     1       4.658  -0.521  -3.874  0.00  0.00    +0.000 A 
ATOM      8  C   UNL     1       5.973  -0.072  -3.825  0.00  0.00    +0.000 A 
ATOM      9  C   UNL     1       6.384   0.736  -2.770  0.00  0.00    +0.000 A 
ATOM     10  C   UNL     1       5.481   1.094  -1.756  0.00  0.00    +0.000 A 
ATOM     11  C   UNL     1       5.927   1.971  -0.639  0.00  0.00    +0.000 C 
ATOM     12  C   UNL     1       5.358   3.333  -0.855  0.00  0.00    +0.000 C 
ATOM     13  O   UNL     1       6.095   4.294  -1.109  0.00  0.00    +0.000 OA
ATOM     14  C   UNL     1       3.880   3.514  -0.745  0.00  0.00    +0.000 A 
ATOM     15  C   UNL     1       2.909   2.476  -0.670  0.00  0.00    +0.000 A 
ATOM     16  C   UNL     1       1.586   2.908  -0.454  0.00  0.00    +0.000 A 
ATOM     17  C   UNL     1       1.215   4.251  -0.357  0.00  0.00    +0.000 A 
ATOM     18  C   UNL     1       2.173   5.239  -0.432  0.00  0.00    +0.000 A 
ATOM     19  C   UNL     1       3.497   4.872  -0.616  0.00  0.00    +0.000 A 
ATOM     20  H   UNL     1       0.789  -0.790   0.399  0.00  0.00    +0.000 HD
ATOM     21  H   UNL     1       0.611   0.416  -0.753  0.00  0.00    +0.000 HD
ENDROOT
TORSDOF 0
