REMARK  Name = Oxeladin
REMARK  17 active torsions:
REMARK  status: ('A' for Active; 'I' for Inactive)
REMARK    1  A    between atoms: C_1  and  C_2
REMARK    2  A    between atoms: C_2  and  N_3
REMARK    3  A    between atoms: N_3  and  C_4
REMARK    4  A    between atoms: N_3  and  C_6
REMARK    5  A    between atoms: C_4  and  C_5
REMARK    6  A    between atoms: C_6  and  C_7
REMARK    7  A    between atoms: C_7  and  O_8
REMARK    8  A    between atoms: O_8  and  C_9
REMARK    9  A    between atoms: C_9  and  C_10
REMARK   10  A    between atoms: C_10  and  O_11
REMARK   11  A    between atoms: O_11  and  C_12
REMARK   12  A    between atoms: C_12  and  C_14
REMARK   13  A    between atoms: C_14  and  C_15
REMARK   14  A    between atoms: C_14  and  C_17
REMARK   15  A    between atoms: C_14  and  C_19
REMARK   16  A    between atoms: C_15  and  C_16
REMARK   17  A    between atoms: C_17  and  C_18
REMARK                            x       y       z     vdW  Elec       q    Type
REMARK                         _______ _______ _______ _____ _____    ______ ____
ROOT
ATOM      1  C   UNL     1      10.160  -5.296   1.617  0.00  0.00    +0.000 C 
ATOM      2  O   UNL     1      10.800  -4.374   1.147  0.00  0.00    +0.000 OA
ENDROOT
BRANCH   1   3
ATOM      3  O   UNL     1       8.809  -5.173   1.761  0.00  0.00    +0.000 OA
BRANCH   3   4
ATOM      4  C   UNL     1       8.355  -3.912   1.245  0.00  0.00    +0.000 C 
BRANCH   4   5
ATOM      5  C   UNL     1       6.850  -3.908   1.220  0.00  0.00    +0.000 C 
BRANCH   5   6
ATOM      6  O   UNL     1       6.390  -2.614   0.829  0.00  0.00    +0.000 OA
BRANCH   6   7
ATOM      7  C   UNL     1       4.967  -2.626   0.808  0.00  0.00    +0.000 C 
BRANCH   7   8
ATOM      8  C   UNL     1       4.401  -1.280   0.342  0.00  0.00    +0.000 C 
BRANCH   8   9
ATOM      9  N   UNL     1       2.909  -1.261   0.297  0.00  0.00    +0.000 NA
BRANCH   9  11
ATOM     10  C   UNL     1       0.975   0.362   0.016  0.00  0.00    +0.000 C 
ATOM     11  C   UNL     1       2.475   0.105  -0.070  0.00  0.00    +0.000 C 
ENDBRANCH   9  11
BRANCH   9  12
ATOM     12  C   UNL     1       2.425  -2.306  -0.630  0.00  0.00    +0.000 C 
ATOM     13  C   UNL     1       0.928  -2.564  -0.649  0.00  0.00    +0.000 C 
ENDBRANCH   9  12
ENDBRANCH   8   9
ENDBRANCH   7   8
ENDBRANCH   6   7
ENDBRANCH   5   6
ENDBRANCH   4   5
ENDBRANCH   3   4
ENDBRANCH   1   3
BRANCH   1  14
ATOM     14  C   UNL     1      10.713  -6.692   2.088  0.00  0.00    +0.000 C 
BRANCH  14  15
ATOM     15  C   UNL     1      12.272  -6.769   2.063  0.00  0.00    +0.000 A 
ATOM     16  C   UNL     1      13.085  -5.676   1.723  0.00  0.00    +0.000 A 
ATOM     17  C   UNL     1      14.457  -5.788   1.546  0.00  0.00    +0.000 A 
ATOM     18  C   UNL     1      15.090  -6.972   1.867  0.00  0.00    +0.000 A 
ATOM     19  C   UNL     1      14.336  -8.055   2.310  0.00  0.00    +0.000 A 
ATOM     20  C   UNL     1      12.943  -7.963   2.393  0.00  0.00    +0.000 A 
ENDBRANCH  14  15
BRANCH  14  21
ATOM     21  C   UNL     1      10.228  -7.010   3.531  0.00  0.00    +0.000 C 
ATOM     22  C   UNL     1      10.732  -6.003   4.550  0.00  0.00    +0.000 C 
ENDBRANCH  14  21
BRANCH  14  23
ATOM     23  C   UNL     1      10.178  -7.797   1.112  0.00  0.00    +0.000 C 
ATOM     24  C   UNL     1       8.660  -7.942   1.054  0.00  0.00    +0.000 C 
ENDBRANCH  14  23
ENDBRANCH   1  14
TORSDOF 13
