REMARK  Name = Oxetacaine
REMARK  19 active torsions:
REMARK  status: ('A' for Active; 'I' for Inactive)
REMARK    1  A    between atoms: C_1  and  N_2
REMARK    2  A    between atoms: N_2  and  C_25
REMARK    3  A    between atoms: C_3  and  C_5
REMARK    4  A    between atoms: C_5  and  N_6
REMARK    5  A    between atoms: N_6  and  C_7
REMARK    6  A    between atoms: N_6  and  C_10
REMARK    7  A    between atoms: C_7  and  C_8
REMARK    8  A    between atoms: C_8  and  O_9
REMARK    9  A    between atoms: C_10  and  C_11
REMARK   10  A    between atoms: N_13  and  C_14
REMARK   11  A    between atoms: N_13  and  C_15
REMARK   12  A    between atoms: C_15  and  C_16
REMARK   13  A    between atoms: C_15  and  C_17
REMARK   14  A    between atoms: C_15  and  C_18
REMARK   15  A    between atoms: C_18  and  C_19
REMARK   16  A    between atoms: C_25  and  C_26
REMARK   17  A    between atoms: C_25  and  C_27
REMARK   18  A    between atoms: C_25  and  C_28
REMARK   19  A    between atoms: C_28  and  C_29
REMARK                            x       y       z     vdW  Elec       q    Type
REMARK                         _______ _______ _______ _____ _____    ______ ____
ROOT
ATOM      1  N   UNL     1       3.405  -0.544  -3.739  0.00  0.00    +0.000 NA
ENDROOT
BRANCH   1   2
ATOM      2  C   UNL     1       2.416  -0.283  -2.668  0.00  0.00    +0.000 C 
BRANCH   2   5
ATOM      3  C   UNL     1       1.007  -0.034  -0.116  0.00  0.00    +0.000 C 
ATOM      4  N   UNL     1       2.470  -0.030  -0.169  0.00  0.00    +0.000 N 
ATOM      5  C   UNL     1       3.092   0.259  -1.396  0.00  0.00    +0.000 C 
ATOM      6  O   UNL     1       4.149   0.861  -1.486  0.00  0.00    +0.000 OA
BRANCH   4   7
ATOM      7  C   UNL     1       3.217   0.176   1.142  0.00  0.00    +0.000 C 
ATOM      8  C   UNL     1       2.800   1.521   1.777  0.00  0.00    +0.000 C 
ATOM      9  C   UNL     1       2.823  -0.966   2.116  0.00  0.00    +0.000 C 
BRANCH   7  10
ATOM     10  C   UNL     1       4.786   0.136   0.964  0.00  0.00    +0.000 C 
BRANCH  10  11
ATOM     11  C   UNL     1       5.582   0.297   2.228  0.00  0.00    +0.000 A 
ATOM     12  C   UNL     1       5.994  -0.820   2.953  0.00  0.00    +0.000 A 
ATOM     13  C   UNL     1       6.491  -0.645   4.237  0.00  0.00    +0.000 A 
ATOM     14  C   UNL     1       6.665   0.643   4.751  0.00  0.00    +0.000 A 
ATOM     15  C   UNL     1       6.325   1.761   3.995  0.00  0.00    +0.000 A 
ATOM     16  C   UNL     1       5.798   1.588   2.727  0.00  0.00    +0.000 A 
ENDBRANCH  10  11
ENDBRANCH   7  10
ENDBRANCH   4   7
ENDBRANCH   2   5
ENDBRANCH   1   2
BRANCH   1  17
ATOM     17  C   UNL     1       4.258  -1.733  -3.498  0.00  0.00    +0.000 C 
BRANCH  17  18
ATOM     18  C   UNL     1       5.150  -1.698  -2.254  0.00  0.00    +0.000 C 
BRANCH  18  19
ATOM     19  O   UNL     1       5.974  -2.857  -2.173  0.00  0.00    +0.000 OA
ATOM     20  H   UNL     1       5.383  -3.597  -1.965  0.00  0.00    +0.000 HD
ENDBRANCH  18  19
ENDBRANCH  17  18
ENDBRANCH   1  17
BRANCH   1  21
ATOM     21  C   UNL     1       2.706  -0.647  -5.039  0.00  0.00    +0.000 C 
BRANCH  21  22
ATOM     22  C   UNL     1       3.688  -0.713  -6.217  0.00  0.00    +0.000 C 
ATOM     23  O   UNL     1       4.899  -0.579  -6.036  0.00  0.00    +0.000 OA
ATOM     24  N   UNL     1       3.165  -0.944  -7.494  0.00  0.00    +0.000 N 
ATOM     25  C   UNL     1       1.730  -0.982  -7.763  0.00  0.00    +0.000 C 
BRANCH  24  26
ATOM     26  C   UNL     1       4.139  -1.088  -8.641  0.00  0.00    +0.000 C 
ATOM     27  C   UNL     1       5.038   0.178  -8.713  0.00  0.00    +0.000 C 
ATOM     28  C   UNL     1       5.029  -2.336  -8.400  0.00  0.00    +0.000 C 
BRANCH  26  29
ATOM     29  C   UNL     1       3.391  -1.268 -10.017  0.00  0.00    +0.000 C 
BRANCH  29  30
ATOM     30  C   UNL     1       4.307  -1.412 -11.208  0.00  0.00    +0.000 A 
ATOM     31  C   UNL     1       4.693  -2.681 -11.653  0.00  0.00    +0.000 A 
ATOM     32  C   UNL     1       5.746  -2.804 -12.555  0.00  0.00    +0.000 A 
ATOM     33  C   UNL     1       6.359  -1.664 -13.075  0.00  0.00    +0.000 A 
ATOM     34  C   UNL     1       5.940  -0.398 -12.677  0.00  0.00    +0.000 A 
ATOM     35  C   UNL     1       4.903  -0.273 -11.762  0.00  0.00    +0.000 A 
ENDBRANCH  29  30
ENDBRANCH  26  29
ENDBRANCH  24  26
ENDBRANCH  21  22
ENDBRANCH   1  21
TORSDOF 13
