REMARK  Name = Oxiconazole
REMARK  6 active torsions:
REMARK  status: ('A' for Active; 'I' for Inactive)
REMARK    1  A    between atoms: C_6  and  C_7
REMARK    2  A    between atoms: C_7  and  O_8
REMARK    3  A    between atoms: O_8  and  N_9
REMARK    4  A    between atoms: C_10  and  C_11
REMARK    5  A    between atoms: C_10  and  C_17
REMARK    6  A    between atoms: C_11  and  N_12
REMARK                            x       y       z     vdW  Elec       q    Type
REMARK                         _______ _______ _______ _____ _____    ______ ____
ROOT
ATOM      1  N   UNL     1       3.508  -4.423  -0.027  0.00  0.00    +0.000 NA
ATOM      2  C   UNL     1       3.050  -5.678  -0.037  0.00  0.00    +0.000 C 
ENDROOT
BRANCH   2   3
ATOM      3  C   UNL     1       4.160  -6.744  -0.084  0.00  0.00    +0.000 A 
ATOM      4  C   UNL     1       5.221  -6.578   0.835  0.00  0.00    +0.000 A 
ATOM      5  C   UNL     1       6.283  -7.494   0.897  0.00  0.00    +0.000 A 
ATOM      6  C   UNL     1       6.285  -8.604   0.061  0.00  0.00    +0.000 A 
ATOM      7 CL   UNL     1       7.599  -9.712   0.095  0.00  0.00    +0.000 Cl
ATOM      8  C   UNL     1       5.234  -8.810  -0.825  0.00  0.00    +0.000 A 
ATOM      9  C   UNL     1       4.179  -7.886  -0.906  0.00  0.00    +0.000 A 
ATOM     10 CL   UNL     1       3.013  -8.235  -2.131  0.00  0.00    +0.000 Cl
ENDBRANCH   2   3
BRANCH   1  11
ATOM     11  O   UNL     1       2.729  -3.408   0.631  0.00  0.00    +0.000 OA
BRANCH  11  12
ATOM     12  C   UNL     1       2.783  -2.023   0.069  0.00  0.00    +0.000 C 
BRANCH  12  18
ATOM     13 CL   UNL     1      -2.621   1.040   0.071  0.00  0.00    +0.000 Cl
ATOM     14  C   UNL     1      -1.093   0.253   0.070  0.00  0.00    +0.000 A 
ATOM     15  C   UNL     1       0.121   0.929   0.107  0.00  0.00    +0.000 A 
ATOM     16  C   UNL     1       1.370   0.224   0.120  0.00  0.00    +0.000 A 
ATOM     17 CL   UNL     1       2.811   1.170   0.091  0.00  0.00    +0.000 Cl
ATOM     18  C   UNL     1       1.445  -1.163  -0.023  0.00  0.00    +0.000 A 
ATOM     19  C   UNL     1       0.207  -1.658  -0.441  0.00  0.00    +0.000 A 
ATOM     20  C   UNL     1      -1.047  -1.084  -0.169  0.00  0.00    +0.000 A 
ENDBRANCH  12  18
ENDBRANCH  11  12
ENDBRANCH   1  11
BRANCH   2  21
ATOM     21  C   UNL     1       1.616  -6.352   0.085  0.00  0.00    +0.000 C 
BRANCH  21  22
ATOM     22  N   UNL     1       0.390  -5.589   0.248  0.00  0.00    +0.000 N 
ATOM     23  C   UNL     1      -0.942  -5.829   0.022  0.00  0.00    +0.000 A 
ATOM     24  C   UNL     1      -1.557  -4.604   0.246  0.00  0.00    +0.000 A 
ATOM     25  N   UNL     1      -0.683  -3.767   0.825  0.00  0.00    +0.000 NA
ATOM     26  C   UNL     1       0.436  -4.280   0.377  0.00  0.00    +0.000 A 
ENDBRANCH  21  22
ENDBRANCH   2  21
TORSDOF 6
