REMARK  Name = Oxidronic acid
REMARK  7 active torsions:
REMARK  status: ('A' for Active; 'I' for Inactive)
REMARK    1  A    between atoms: O_1  and  C_2
REMARK    2  A    between atoms: C_2  and  P_3
REMARK    3  A    between atoms: C_2  and  P_7
REMARK    4  A    between atoms: P_3  and  O_4
REMARK    5  A    between atoms: P_3  and  O_5
REMARK    6  A    between atoms: P_7  and  O_8
REMARK    7  A    between atoms: P_7  and  O_9
REMARK                            x       y       z     vdW  Elec       q    Type
REMARK                         _______ _______ _______ _____ _____    ______ ____
ROOT
ATOM      1  C   UNL     1       2.447  -0.037   0.089  0.00  0.00    +0.000 C 
ENDROOT
BRANCH   1   2
ATOM      2  O   UNL     1       1.003  -0.080   0.072  0.00  0.00    +0.000 OA
ATOM      3  H   UNL     1       0.745   0.253   0.960  0.00  0.00    +0.000 HD
ENDBRANCH   1   2
BRANCH   1   4
ATOM      4  P   UNL     1       3.057  -1.013   1.512  0.00  0.00    +0.000 P 
ATOM      5  O   UNL     1       3.574  -1.839   2.715  0.00  0.00    +0.000 OA
BRANCH   4   6
ATOM      6  O   UNL     1       4.483  -0.176   1.346  0.00  0.00    +0.000 OA
ATOM      7  H   UNL     1       4.992  -0.619   0.620  0.00  0.00    +0.000 HD
ENDBRANCH   4   6
BRANCH   4   8
ATOM      8  O   UNL     1       2.368   0.209   2.405  0.00  0.00    +0.000 OA
ATOM      9  H   UNL     1       3.063   0.896   2.515  0.00  0.00    +0.000 HD
ENDBRANCH   4   8
ENDBRANCH   1   4
BRANCH   1  10
ATOM     10  P   UNL     1       3.057  -0.782  -1.468  0.00  0.00    +0.000 P 
ATOM     11  O   UNL     1       3.574  -1.412  -2.785  0.00  0.00    +0.000 OA
BRANCH  10  12
ATOM     12  O   UNL     1       3.962   0.584  -1.657  0.00  0.00    +0.000 OA
ATOM     13  H   UNL     1       3.444   1.347  -2.001  0.00  0.00    +0.000 HD
ENDBRANCH  10  12
BRANCH  10  14
ATOM     14  O   UNL     1       4.157  -1.654  -0.606  0.00  0.00    +0.000 OA
ATOM     15  H   UNL     1       4.439  -2.443  -1.136  0.00  0.00    +0.000 HD
ENDBRANCH  10  14
ENDBRANCH   1  10
TORSDOF 7
