REMARK  Name = Oxilofrine
REMARK  7 active torsions:
REMARK  status: ('A' for Active; 'I' for Inactive)
REMARK    1  A    between atoms: C_2  and  C_3
REMARK    2  A    between atoms: C_2  and  N_4
REMARK    3  A    between atoms: C_2  and  C_6
REMARK    4  A    between atoms: N_4  and  C_5
REMARK    5  A    between atoms: C_6  and  O_8
REMARK    6  A    between atoms: C_6  and  C_9
REMARK    7  A    between atoms: C_12  and  O_13
REMARK                            x       y       z     vdW  Elec       q    Type
REMARK                         _______ _______ _______ _____ _____    ______ ____
ROOT
ATOM      1  C   UNL     1       2.540   1.163   0.849  0.00  0.00    +0.000 C 
ENDROOT
BRANCH   1   2
ATOM      2  C   UNL     1       4.059   1.180   0.850  0.00  0.00    +0.000 A 
ATOM      3  C   UNL     1       4.769  -0.032   0.823  0.00  0.00    +0.000 A 
ATOM      4  C   UNL     1       6.169  -0.044   0.806  0.00  0.00    +0.000 A 
ATOM      5  C   UNL     1       6.862   1.164   0.801  0.00  0.00    +0.000 A 
ATOM      6  C   UNL     1       6.187   2.366   0.846  0.00  0.00    +0.000 A 
ATOM      7  C   UNL     1       4.796   2.376   0.900  0.00  0.00    +0.000 A 
BRANCH   5   8
ATOM      8  O   UNL     1       8.224   1.216   0.761  0.00  0.00    +0.000 OA
ATOM      9  H   UNL     1       8.568   0.312   0.724  0.00  0.00    +0.000 HD
ENDBRANCH   5   8
ENDBRANCH   1   2
BRANCH   1  10
ATOM     10  C   UNL     1       1.837   2.466   0.308  0.00  0.00    +0.000 C 
ATOM     11  C   UNL     1       0.793   2.980   1.305  0.00  0.00    +0.000 C 
BRANCH  10  12
ATOM     12  N   UNL     1       1.279   2.239  -1.046  0.00  0.00    +0.000 NA
ATOM     13  C   UNL     1       0.704   3.450  -1.617  0.00  0.00    +0.000 C 
ATOM     14  H   UNL     1       0.573   1.506  -1.006  0.00  0.00    +0.000 HD
ENDBRANCH  10  12
ENDBRANCH   1  10
BRANCH   1  15
ATOM     15  O   UNL     1       2.091   0.844   2.174  0.00  0.00    +0.000 OA
ATOM     16  H   UNL     1       2.558   0.043   2.459  0.00  0.00    +0.000 HD
ENDBRANCH   1  15
TORSDOF 5
