REMARK  Name = Oxitriptan
REMARK  6 active torsions:
REMARK  status: ('A' for Active; 'I' for Inactive)
REMARK    1  A    between atoms: N_1  and  CA_2
REMARK    2  A    between atoms: CA_2  and  C_3
REMARK    3  A    between atoms: CA_2  and  C_14
REMARK    4  A    between atoms: C_3  and  C_4
REMARK    5  A    between atoms: C_10  and  O_11
REMARK    6  A    between atoms: C_14  and  O_15
REMARK                            x       y       z     vdW  Elec       q    Type
REMARK                         _______ _______ _______ _____ _____    ______ ____
ROOT
ATOM      1  C   UNL     1       2.564   0.579  -2.363  0.00  0.00    +0.000 A 
ATOM      2  C   UNL     1       2.496  -0.657  -2.978  0.00  0.00    +0.000 A 
ATOM      3  N   UNL     1       2.074  -0.476  -4.270  0.00  0.00    +0.000 N 
ATOM      4  C   UNL     1       1.849   0.860  -4.512  0.00  0.00    +0.000 A 
ATOM      5  C   UNL     1       2.131   1.541  -3.328  0.00  0.00    +0.000 A 
ATOM      6  C   UNL     1       1.970   2.940  -3.289  0.00  0.00    +0.000 A 
ATOM      7  C   UNL     1       1.529   3.598  -4.434  0.00  0.00    +0.000 A 
ATOM      8  C   UNL     1       1.265   2.906  -5.608  0.00  0.00    +0.000 A 
ATOM      9  C   UNL     1       1.428   1.517  -5.675  0.00  0.00    +0.000 A 
ATOM     10  H   UNL     1       1.949  -1.214  -4.951  0.00  0.00    +0.000 HD
ENDROOT
BRANCH   7  11
ATOM     11  O   UNL     1       1.350   4.952  -4.432  0.00  0.00    +0.000 OA
ATOM     12  H   UNL     1       1.588   5.294  -3.554  0.00  0.00    +0.000 HD
ENDBRANCH   7  11
BRANCH   1  13
ATOM     13  C   UNL     1       3.018   0.894  -0.967  0.00  0.00    +0.000 C 
BRANCH  13  14
ATOM     14  CA  UNL     1       2.484  -0.069   0.102  0.00  0.00    +0.000 C 
BRANCH  14  15
ATOM     15  N   UNL     1       0.987  -0.048   0.171  0.00  0.00    +0.000 NA
ATOM     16  H1  UNL     1       0.670  -0.364  -0.758  0.00  0.00    +0.000 HD
ATOM     17  H2  UNL     1       0.673   0.927   0.175  0.00  0.00    +0.000 HD
ENDBRANCH  14  15
BRANCH  14  18
ATOM     18  C   UNL     1       3.087   0.314   1.461  0.00  0.00    +0.000 C 
ATOM     19  OXT UNL     1       4.282   0.401   1.680  0.00  0.00    +0.000 OA
BRANCH  18  20
ATOM     20  O   UNL     1       2.150   0.569   2.411  0.00  0.00    +0.000 OA
ATOM     21  H   UNL     1       1.263   0.349   2.044  0.00  0.00    +0.000 HD
ENDBRANCH  18  20
ENDBRANCH  14  18
ENDBRANCH  13  14
ENDBRANCH   1  13
TORSDOF 6
