REMARK  Name = Oxolamine
REMARK  8 active torsions:
REMARK  status: ('A' for Active; 'I' for Inactive)
REMARK    1  A    between atoms: C_1  and  C_2
REMARK    2  A    between atoms: C_2  and  N_3
REMARK    3  A    between atoms: N_3  and  C_4
REMARK    4  A    between atoms: N_3  and  C_6
REMARK    5  A    between atoms: C_4  and  C_5
REMARK    6  A    between atoms: C_6  and  C_7
REMARK    7  A    between atoms: C_7  and  C_8
REMARK    8  A    between atoms: C_10  and  C_13
REMARK                            x       y       z     vdW  Elec       q    Type
REMARK                         _______ _______ _______ _____ _____    ______ ____
ROOT
ATOM      1  C   UNL     1       6.539   0.179   2.860  0.00  0.00    +0.000 A 
ATOM      2  N   UNL     1       7.301   1.250   2.916  0.00  0.00    +0.000 NA
ATOM      3  C   UNL     1       8.557   0.710   2.840  0.00  0.00    +0.000 A 
ATOM      4  N   UNL     1       8.591  -0.631   2.761  0.00  0.00    +0.000 NA
ATOM      5  O   UNL     1       7.243  -0.986   2.790  0.00  0.00    +0.000 OA
ENDROOT
BRANCH   3   6
ATOM      6  C   UNL     1       9.741   1.538   2.892  0.00  0.00    +0.000 A 
ATOM      7  C   UNL     1      10.710   1.457   1.886  0.00  0.00    +0.000 A 
ATOM      8  C   UNL     1      11.889   2.194   1.996  0.00  0.00    +0.000 A 
ATOM      9  C   UNL     1      12.078   3.049   3.082  0.00  0.00    +0.000 A 
ATOM     10  C   UNL     1      11.097   3.161   4.068  0.00  0.00    +0.000 A 
ATOM     11  C   UNL     1       9.929   2.406   3.973  0.00  0.00    +0.000 A 
ENDBRANCH   3   6
BRANCH   1  12
ATOM     12  C   UNL     1       5.070   0.080   2.893  0.00  0.00    +0.000 C 
BRANCH  12  13
ATOM     13  C   UNL     1       4.475   0.046   1.475  0.00  0.00    +0.000 C 
BRANCH  13  14
ATOM     14  N   UNL     1       2.981   0.007   1.439  0.00  0.00    +0.000 NA
BRANCH  14  16
ATOM     15  C   UNL     1       1.051   0.256  -0.212  0.00  0.00    +0.000 C 
ATOM     16  C   UNL     1       2.549   0.082   0.024  0.00  0.00    +0.000 C 
ENDBRANCH  14  16
BRANCH  14  17
ATOM     17  C   UNL     1       2.494  -1.193   2.150  0.00  0.00    +0.000 C 
ATOM     18  C   UNL     1       0.996  -1.287   2.397  0.00  0.00    +0.000 C 
ENDBRANCH  14  17
ENDBRANCH  13  14
ENDBRANCH  12  13
ENDBRANCH   1  12
TORSDOF 6
