REMARK  Name = Oxprenolol
REMARK  12 active torsions:
REMARK  status: ('A' for Active; 'I' for Inactive)
REMARK    1  A    between atoms: C_1  and  C_2
REMARK    2  A    between atoms: C_2  and  C_3
REMARK    3  A    between atoms: C_2  and  N_4
REMARK    4  A    between atoms: N_4  and  C_5
REMARK    5  A    between atoms: C_5  and  C_6
REMARK    6  A    between atoms: C_6  and  O_7
REMARK    7  A    between atoms: C_6  and  C_8
REMARK    8  A    between atoms: C_8  and  O_9
REMARK    9  A    between atoms: O_9  and  C_10
REMARK   10  A    between atoms: C_15  and  O_16
REMARK   11  A    between atoms: O_16  and  C_17
REMARK   12  A    between atoms: C_17  and  C_18
REMARK                            x       y       z     vdW  Elec       q    Type
REMARK                         _______ _______ _______ _____ _____    ______ ____
ROOT
ATOM      1  O   UNL     1       7.002  -4.151   1.059  0.00  0.00    +0.000 OA
ENDROOT
BRANCH   1   2
ATOM      2  C   UNL     1       8.387  -4.149   1.167  0.00  0.00    +0.000 A 
ATOM      3  C   UNL     1       8.936  -5.350   0.652  0.00  0.00    +0.000 A 
ATOM      4  C   UNL     1      10.279  -5.694   0.845  0.00  0.00    +0.000 A 
ATOM      5  C   UNL     1      11.126  -4.813   1.499  0.00  0.00    +0.000 A 
ATOM      6  C   UNL     1      10.618  -3.615   1.996  0.00  0.00    +0.000 A 
ATOM      7  C   UNL     1       9.257  -3.270   1.883  0.00  0.00    +0.000 A 
BRANCH   7   8
ATOM      8  O   UNL     1       9.041  -2.100   2.618  0.00  0.00    +0.000 OA
BRANCH   8   9
ATOM      9  C   UNL     1       7.776  -1.550   2.395  0.00  0.00    +0.000 C 
BRANCH   9  10
ATOM     10  C   UNL     1       7.345  -0.230   2.938  0.00  0.00    +0.000 C 
ATOM     11  C   UNL     1       6.027   0.114   2.961  0.00  0.00    +0.000 C 
ENDBRANCH   9  10
ENDBRANCH   8   9
ENDBRANCH   7   8
ENDBRANCH   1   2
BRANCH   1  12
ATOM     12  C   UNL     1       6.375  -3.055   0.405  0.00  0.00    +0.000 C 
BRANCH  12  13
ATOM     13  C   UNL     1       4.852  -2.980   0.449  0.00  0.00    +0.000 C 
BRANCH  13  14
ATOM     14  O   UNL     1       4.272  -3.869  -0.489  0.00  0.00    +0.000 OA
ATOM     15  H   UNL     1       4.720  -3.695  -1.332  0.00  0.00    +0.000 HD
ENDBRANCH  13  14
BRANCH  13  16
ATOM     16  C   UNL     1       4.461  -1.509   0.097  0.00  0.00    +0.000 C 
BRANCH  16  17
ATOM     17  N   UNL     1       3.036  -1.314   0.313  0.00  0.00    +0.000 NA
ATOM     18  H   UNL     1       2.548  -2.001  -0.266  0.00  0.00    +0.000 HD
BRANCH  17  20
ATOM     19  C   UNL     1       1.054   0.022   0.021  0.00  0.00    +0.000 C 
ATOM     20  C   UNL     1       2.580   0.044   0.013  0.00  0.00    +0.000 C 
ATOM     21  C   UNL     1       3.072   1.069   1.038  0.00  0.00    +0.000 C 
ENDBRANCH  17  20
ENDBRANCH  16  17
ENDBRANCH  13  16
ENDBRANCH  12  13
ENDBRANCH   1  12
TORSDOF 10
