REMARK  Name = Oxtriphylline
REMARK  8 active torsions:
REMARK  status: ('A' for Active; 'I' for Inactive)
REMARK    1  A    between atoms: C_1  and  N_2
REMARK    2  A    between atoms: N_2  and  C_3
REMARK    3  A    between atoms: N_2  and  C_4
REMARK    4  A    between atoms: N_2  and  C_5
REMARK    5  A    between atoms: C_5  and  C_6
REMARK    6  A    between atoms: C_6  and  O_7
REMARK    7  A    between atoms: C_8  and  N_9
REMARK    8  A    between atoms: N_17  and  C_18
REMARK                            x       y       z     vdW  Elec       q    Type
REMARK                         _______ _______ _______ _____ _____    ______ ____
ROOT
ATOM      1  C   UNL     1       0.104  -0.476  -0.728  0.00  0.00    +0.000 C 
ATOM      2  N   UNL     1       1.938  -0.580  -0.346  0.00  0.00    +0.000 N 
ATOM      3  C   UNL     1       2.629   0.937  -1.417  0.00  0.00    +0.000 C 
ATOM      4  C   UNL     1       2.182  -0.807   1.720  0.00  0.00    +0.000 C 
ENDROOT
BRANCH   2   5
ATOM      5  C   UNL     1       2.841  -1.512  -1.526  0.00  0.00    +0.000 C 
BRANCH   5   6
ATOM      6  C   UNL     1       4.588  -1.385  -1.714  0.00  0.00    +0.000 C 
BRANCH   6   7
ATOM      7  O   UNL     1       4.965  -2.589  -2.344  0.00  0.00    +0.000 OA
ATOM      8  H   UNL     1       4.934  -3.173  -1.538  0.00  0.00    +0.000 HD
ENDBRANCH   6   7
ENDBRANCH   5   6
ENDBRANCH   2   5
TORSDOF 3
REMARK  Name = Oxtriphylline
REMARK  8 active torsions:
REMARK  status: ('A' for Active; 'I' for Inactive)
REMARK    1  A    between atoms: C_1  and  N_2
REMARK    2  A    between atoms: N_2  and  C_3
REMARK    3  A    between atoms: N_2  and  C_4
REMARK    4  A    between atoms: N_2  and  C_5
REMARK    5  A    between atoms: C_5  and  C_6
REMARK    6  A    between atoms: C_6  and  O_7
REMARK    7  A    between atoms: C_8  and  N_9
REMARK    8  A    between atoms: N_17  and  C_18
REMARK                            x       y       z     vdW  Elec       q    Type
REMARK                         _______ _______ _______ _____ _____    ______ ____
ROOT
ATOM      1  C   UNL     2       1.284   0.820   0.882  0.00  0.00    +0.000 C 
ATOM      2  N   UNL     2       3.091   0.510   0.762  0.00  0.00    +0.000 N 
ATOM      3  C   UNL     2       3.834  -1.087   0.645  0.00  0.00    +0.000 A 
ATOM      4  C   UNL     2       5.114  -1.258   0.944  0.00  0.00    +0.000 A 
ATOM      5  N   UNL     2       5.285  -2.703   0.764  0.00  0.00    +0.000 NA
ATOM      6  C   UNL     2       4.103  -3.392   0.598  0.00  0.00    +0.000 A 
ATOM      7  N   UNL     2       3.189  -2.432   0.679  0.00  0.00    +0.000 NA
ATOM      8  C   UNL     2       5.807   0.104   0.630  0.00  0.00    +0.000 A 
ATOM      9  O   UNL     2       6.898   0.222   0.070  0.00  0.00    +0.000 OA
ATOM     10  N   UNL     2       5.047   1.413   0.743  0.00  0.00    +0.000 N 
ATOM     11  C   UNL     2       5.474   2.665   0.198  0.00  0.00    +0.000 C 
ATOM     12  C   UNL     2       3.741   1.628   0.974  0.00  0.00    +0.000 A 
ATOM     13  O   UNL     2       3.040   2.636   1.063  0.00  0.00    +0.000 OA
ENDROOT
TORSDOF 0
