REMARK  Name = Oxybuprocaine
REMARK  15 active torsions:
REMARK  status: ('A' for Active; 'I' for Inactive)
REMARK    1  A    between atoms: C_1  and  C_2
REMARK    2  A    between atoms: C_2  and  C_3
REMARK    3  A    between atoms: C_3  and  C_4
REMARK    4  A    between atoms: C_4  and  O_5
REMARK    5  A    between atoms: O_5  and  C_6
REMARK    6  A    between atoms: C_8  and  C_13
REMARK    7  A    between atoms: C_11  and  N_12
REMARK    8  A    between atoms: C_13  and  O_15
REMARK    9  A    between atoms: O_15  and  C_16
REMARK   10  A    between atoms: C_16  and  C_17
REMARK   11  A    between atoms: C_17  and  N_18
REMARK   12  A    between atoms: N_18  and  C_19
REMARK   13  A    between atoms: N_18  and  C_21
REMARK   14  A    between atoms: C_19  and  C_20
REMARK   15  A    between atoms: C_21  and  C_22
REMARK                            x       y       z     vdW  Elec       q    Type
REMARK                         _______ _______ _______ _____ _____    ______ ____
ROOT
ATOM      1  C   UNL     1       6.342  -2.480   1.755  0.00  0.00    +0.000 A 
ATOM      2  C   UNL     1       6.865  -3.786   1.658  0.00  0.00    +0.000 A 
ATOM      3  C   UNL     1       8.243  -4.023   1.828  0.00  0.00    +0.000 A 
ATOM      4  C   UNL     1       9.096  -2.951   2.077  0.00  0.00    +0.000 A 
ATOM      5  C   UNL     1       8.575  -1.665   2.200  0.00  0.00    +0.000 A 
ATOM      6  C   UNL     1       7.201  -1.412   2.085  0.00  0.00    +0.000 A 
ENDROOT
BRANCH   6   7
ATOM      7  N   UNL     1       6.782  -0.076   2.146  0.00  0.00    +0.000 N 
ATOM      8  H   UNL     1       7.444   0.585   2.532  0.00  0.00    +0.000 HD
ATOM      9  H   UNL     1       5.857   0.032   2.550  0.00  0.00    +0.000 HD
ENDBRANCH   6   7
BRANCH   3  10
ATOM     10  C   UNL     1       8.785  -5.407   1.738  0.00  0.00    +0.000 C 
ATOM     11  O   UNL     1       8.112  -6.351   1.373  0.00  0.00    +0.000 OA
BRANCH  10  12
ATOM     12  O   UNL     1      10.120  -5.451   2.090  0.00  0.00    +0.000 OA
BRANCH  12  13
ATOM     13  C   UNL     1      10.679  -6.735   1.792  0.00  0.00    +0.000 C 
BRANCH  13  14
ATOM     14  C   UNL     1      12.217  -6.850   1.839  0.00  0.00    +0.000 C 
BRANCH  14  15
ATOM     15  N   UNL     1      12.753  -8.227   1.602  0.00  0.00    +0.000 NA
BRANCH  15  16
ATOM     16  C   UNL     1      12.453  -8.764   0.254  0.00  0.00    +0.000 C 
ATOM     17  C   UNL     1      10.995  -9.048  -0.081  0.00  0.00    +0.000 C 
ENDBRANCH  15  16
BRANCH  15  18
ATOM     18  C   UNL     1      14.226  -8.223   1.820  0.00  0.00    +0.000 C 
ATOM     19  C   UNL     1      14.873  -9.609   1.714  0.00  0.00    +0.000 C 
ENDBRANCH  15  18
ENDBRANCH  14  15
ENDBRANCH  13  14
ENDBRANCH  12  13
ENDBRANCH  10  12
ENDBRANCH   3  10
BRANCH   1  20
ATOM     20  O   UNL     1       4.972  -2.368   1.641  0.00  0.00    +0.000 OA
BRANCH  20  21
ATOM     21  C   UNL     1       4.490  -1.320   0.791  0.00  0.00    +0.000 C 
BRANCH  21  22
ATOM     22  C   UNL     1       2.965  -1.293   0.827  0.00  0.00    +0.000 C 
BRANCH  22  24
ATOM     23  C   UNL     1       0.921  -0.072   0.024  0.00  0.00    +0.000 C 
ATOM     24  C   UNL     1       2.437  -0.102   0.023  0.00  0.00    +0.000 C 
ENDBRANCH  22  24
ENDBRANCH  21  22
ENDBRANCH  20  21
ENDBRANCH   1  20
TORSDOF 12
