REMARK  Name = Oxybenzone
REMARK  5 active torsions:
REMARK  status: ('A' for Active; 'I' for Inactive)
REMARK    1  A    between atoms: C_1  and  O_2
REMARK    2  A    between atoms: O_2  and  C_3
REMARK    3  A    between atoms: C_5  and  O_6
REMARK    4  A    between atoms: C_7  and  C_10
REMARK    5  A    between atoms: C_10  and  C_12
REMARK                            x       y       z     vdW  Elec       q    Type
REMARK                         _______ _______ _______ _____ _____    ______ ____
ROOT
ATOM      1  C   UNL     1       3.107   1.198  -0.073  0.00  0.00    +0.000 A 
ATOM      2  C   UNL     1       4.505   1.141  -0.086  0.00  0.00    +0.000 A 
ATOM      3  C   UNL     1       5.265   2.316  -0.112  0.00  0.00    +0.000 A 
ATOM      4  C   UNL     1       4.638   3.570  -0.133  0.00  0.00    +0.000 A 
ATOM      5  C   UNL     1       3.234   3.608  -0.124  0.00  0.00    +0.000 A 
ATOM      6  C   UNL     1       2.476   2.437  -0.077  0.00  0.00    +0.000 A 
ENDROOT
BRANCH   1   8
ATOM      7  C   UNL     1       1.040   0.032  -0.082  0.00  0.00    +0.000 C 
ATOM      8  O   UNL     1       2.465  -0.010  -0.063  0.00  0.00    +0.000 OA
ENDBRANCH   1   8
BRANCH   3   9
ATOM      9  O   UNL     1       6.629   2.222  -0.120  0.00  0.00    +0.000 OA
ATOM     10  H   UNL     1       6.917   1.297  -0.124  0.00  0.00    +0.000 HD
ENDBRANCH   3   9
BRANCH   4  11
ATOM     11  C   UNL     1       5.426   4.843  -0.196  0.00  0.00    +0.000 C 
ATOM     12  O   UNL     1       6.653   4.875  -0.295  0.00  0.00    +0.000 OA
BRANCH  11  13
ATOM     13  C   UNL     1       4.755   6.156  -0.150  0.00  0.00    +0.000 A 
ATOM     14  C   UNL     1       4.996   7.077  -1.174  0.00  0.00    +0.000 A 
ATOM     15  C   UNL     1       4.468   8.363  -1.075  0.00  0.00    +0.000 A 
ATOM     16  C   UNL     1       3.650   8.701   0.005  0.00  0.00    +0.000 A 
ATOM     17  C   UNL     1       3.392   7.772   1.013  0.00  0.00    +0.000 A 
ATOM     18  C   UNL     1       3.966   6.505   0.951  0.00  0.00    +0.000 A 
ENDBRANCH  11  13
ENDBRANCH   4  11
TORSDOF 4
