REMARK  Name = Oxycodone
REMARK  4 active torsions:
REMARK  status: ('A' for Active; 'I' for Inactive)
REMARK    1  A    between atoms: C_1  and  O_2
REMARK    2  A    between atoms: O_2  and  C_3
REMARK    3  A    between atoms: C_11  and  O_12
REMARK    4  A    between atoms: N_22  and  C_23
REMARK                            x       y       z     vdW  Elec       q    Type
REMARK                         _______ _______ _______ _____ _____    ______ ____
ROOT
ATOM      1  C   UNL     1       2.680  -1.401   0.563  0.00  0.00    +0.000 A 
ATOM      2  C   UNL     1       1.796  -2.096   1.344  0.00  0.00    +0.000 A 
ATOM      3  O   UNL     1       0.464  -1.803   1.652  0.00  0.00    +0.000 OA
ATOM      4  C   UNL     1       0.012  -3.004   2.301  0.00  0.00    +0.000 C 
ATOM      5  C   UNL     1      -1.231  -3.079   3.185  0.00  0.00    +0.000 C 
ATOM      6  O   UNL     1      -2.161  -2.205   3.107  0.00  0.00    +0.000 OA
ATOM      7  C   UNL     1      -1.384  -4.231   4.183  0.00  0.00    +0.000 C 
ATOM      8  C   UNL     1      -0.282  -5.314   4.057  0.00  0.00    +0.000 C 
ATOM      9  C   UNL     1       1.179  -4.858   3.719  0.00  0.00    +0.000 C 
ATOM     10  C   UNL     1       2.281  -4.682   4.924  0.00  0.00    +0.000 C 
ATOM     11  C   UNL     1       3.619  -4.582   3.554  0.00  0.00    +0.000 C 
ATOM     12  C   UNL     1       3.519  -3.608   2.310  0.00  0.00    +0.000 A 
ATOM     13  C   UNL     1       4.385  -3.087   1.328  0.00  0.00    +0.000 A 
ATOM     14  C   UNL     1       3.976  -1.954   0.496  0.00  0.00    +0.000 A 
ATOM     15  C   UNL     1       2.244  -3.143   2.140  0.00  0.00    +0.000 A 
ATOM     16  C   UNL     1       1.204  -3.413   3.127  0.00  0.00    +0.000 C 
ATOM     17  C   UNL     1       1.679  -2.349   4.150  0.00  0.00    +0.000 C 
ATOM     18  C   UNL     1       0.920  -2.669   5.333  0.00  0.00    +0.000 C 
ATOM     19  N   UNL     1       1.727  -3.523   6.142  0.00  0.00    +0.000 NA
ATOM     20  C   UNL     1       0.659  -3.711   7.270  0.00  0.00    +0.000 C 
ENDROOT
BRANCH   1  22
ATOM     21  C   UNL     1       0.987   0.046  -0.161  0.00  0.00    +0.000 C 
ATOM     22  O   UNL     1       2.392  -0.241  -0.107  0.00  0.00    +0.000 OA
ENDBRANCH   1  22
BRANCH   9  23
ATOM     23  O   UNL     1       1.493  -5.756   2.622  0.00  0.00    +0.000 OA
ATOM     24  H   UNL     1       1.248  -6.676   2.811  0.00  0.00    +0.000 HD
ENDBRANCH   9  23
TORSDOF 2
