REMARK  Name = Oxymetholone
REMARK  5 active torsions:
REMARK  status: ('A' for Active; 'I' for Inactive)
REMARK    1  A    between atoms: C_5  and  C_6
REMARK    2  A    between atoms: C_5  and  O_7
REMARK    3  A    between atoms: C_8  and  C_9
REMARK    4  A    between atoms: C_25  and  C_26
REMARK    5  A    between atoms: C_27  and  O_28
REMARK                            x       y       z     vdW  Elec       q    Type
REMARK                         _______ _______ _______ _____ _____    ______ ____
ROOT
ATOM      1  C   UNL     1       1.660  -0.084  -0.214  0.00  0.00    +0.000 C 
ATOM      2  C   UNL     1       2.069  -0.084  -1.573  0.00  0.00    +0.000 C 
ATOM      3  C   UNL     1       3.114  -0.418  -0.585  0.00  0.00    +0.000 C 
ATOM      4  C   UNL     1       2.344  -0.886   1.310  0.00  0.00    +0.000 C 
ATOM      5  C   UNL     1       0.746  -1.046   1.811  0.00  0.00    +0.000 C 
ATOM      6  C   UNL     1       2.572  -1.688   0.202  0.00  0.00    +0.000 C 
ATOM      7  C   UNL     1       1.920  -2.918  -0.229  0.00  0.00    +0.000 C 
ATOM      8  C   UNL     1       4.363  -1.634   0.712  0.00  0.00    +0.000 C 
ATOM      9  C   UNL     1       4.705  -0.157   1.473  0.00  0.00    +0.000 C 
ATOM     10  C   UNL     1       4.099   1.255   0.895  0.00  0.00    +0.000 C 
ATOM     11  C   UNL     1       2.405   1.326   0.696  0.00  0.00    +0.000 C 
ATOM     12  C   UNL     1       1.939   2.573  -0.006  0.00  0.00    +0.000 C 
ATOM     13  C   UNL     1       2.516   3.802   0.639  0.00  0.00    +0.000 C 
ATOM     14  C   UNL     1       4.045   3.788   0.746  0.00  0.00    +0.000 C 
ATOM     15  C   UNL     1       4.656   3.996  -0.646  0.00  0.00    +0.000 C 
ATOM     16  C   UNL     1       6.093   4.219  -0.342  0.00  0.00    +0.000 C 
ATOM     17  O   UNL     1       6.511   5.149   0.355  0.00  0.00    +0.000 OA
ATOM     18  C   UNL     1       6.894   2.980  -0.375  0.00  0.00    +0.000 C 
ATOM     19  C   UNL     1       6.382   2.476   1.089  0.00  0.00    +0.000 C 
ATOM     20  C   UNL     1       4.698   2.534   1.463  0.00  0.00    +0.000 C 
ATOM     21  C   UNL     1       4.226   2.528   2.936  0.00  0.00    +0.000 C 
ATOM     22  C   UNL     1       8.071   3.363  -0.951  0.00  0.00    +0.000 C 
ENDROOT
BRANCH   4  23
ATOM     23  O   UNL     1       2.864  -1.860   2.310  0.00  0.00    +0.000 OA
ATOM     24  H   UNL     1       2.275  -2.011   3.071  0.00  0.00    +0.000 HD
ENDBRANCH   4  23
BRANCH  22  25
ATOM     25  O   UNL     1       9.091   3.944  -0.222  0.00  0.00    +0.000 OA
ATOM     26  H   UNL     1       8.709   4.095   0.662  0.00  0.00    +0.000 HD
ENDBRANCH  22  25
TORSDOF 2
