REMARK  Name = Oxymetazoline
REMARK  9 active torsions:
REMARK  status: ('A' for Active; 'I' for Inactive)
REMARK    1  A    between atoms: C_1  and  C_2
REMARK    2  A    between atoms: C_4  and  C_16
REMARK    3  A    between atoms: C_5  and  O_6
REMARK    4  A    between atoms: C_7  and  C_8
REMARK    5  A    between atoms: C_9  and  C_10
REMARK    6  A    between atoms: C_10  and  C_11
REMARK    7  A    between atoms: C_16  and  C_17
REMARK    8  A    between atoms: C_16  and  C_18
REMARK    9  A    between atoms: C_16  and  C_19
REMARK                            x       y       z     vdW  Elec       q    Type
REMARK                         _______ _______ _______ _____ _____    ______ ____
ROOT
ATOM      1  C   UNL     1      -2.947  -0.746  -0.124  0.00  0.00    +0.000 C 
ATOM      2  C   UNL     1      -1.593  -0.130  -0.070  0.00  0.00    +0.000 A 
ATOM      3  C   UNL     1      -0.568  -1.076  -0.028  0.00  0.00    +0.000 A 
ATOM      4  C   UNL     1       0.790  -0.755  -0.003  0.00  0.00    +0.000 A 
ATOM      5  C   UNL     1       1.090   0.617  -0.013  0.00  0.00    +0.000 A 
ATOM      6  C   UNL     1       0.073   1.611  -0.028  0.00  0.00    +0.000 A 
ATOM      7  C   UNL     1       0.500   3.067  -0.097  0.00  0.00    +0.000 C 
ATOM      8  C   UNL     1      -1.302   1.246  -0.020  0.00  0.00    +0.000 A 
ENDROOT
BRANCH   4   9
ATOM      9  C   UNL     1       1.734  -1.965  -0.035  0.00  0.00    +0.000 C 
ATOM     10  C   UNL     1       1.467  -2.877   1.190  0.00  0.00    +0.000 C 
ATOM     11  C   UNL     1       1.480  -2.770  -1.336  0.00  0.00    +0.000 C 
ATOM     12  C   UNL     1       3.221  -1.622  -0.012  0.00  0.00    +0.000 C 
ENDBRANCH   4   9
BRANCH   5  13
ATOM     13  O   UNL     1       2.344   1.151  -0.038  0.00  0.00    +0.000 OA
ATOM     14  H   UNL     1       3.033   0.516   0.189  0.00  0.00    +0.000 HD
ENDBRANCH   5  13
BRANCH   8  15
ATOM     15  C   UNL     1      -2.347   2.368   0.022  0.00  0.00    +0.000 C 
BRANCH  15  16
ATOM     16  C   UNL     1      -3.817   1.994   0.084  0.00  0.00    +0.000 C 
ATOM     17  N   UNL     1      -4.593   2.110  -0.967  0.00  0.00    +0.000 NA
ATOM     18  C   UNL     1      -5.889   1.500  -0.531  0.00  0.00    +0.000 C 
ATOM     19  C   UNL     1      -5.563   0.686   0.718  0.00  0.00    +0.000 C 
ATOM     20  N   UNL     1      -4.413   1.433   1.201  0.00  0.00    +0.000 N 
ATOM     21  H   UNL     1      -3.806   1.010   1.893  0.00  0.00    +0.000 HD
ENDBRANCH  15  16
ENDBRANCH   8  15
TORSDOF 4
