REMARK  Name = Oxymorphone
REMARK  3 active torsions:
REMARK  status: ('A' for Active; 'I' for Inactive)
REMARK    1  A    between atoms: C_5  and  O_6
REMARK    2  A    between atoms: N_14  and  C_15
REMARK    3  A    between atoms: C_19  and  O_20
REMARK                            x       y       z     vdW  Elec       q    Type
REMARK                         _______ _______ _______ _____ _____    ______ ____
ROOT
ATOM      1  C   UNL     1       2.592  -0.435  -0.192  0.00  0.00    +0.000 C 
ATOM      2  O   UNL     1       2.974   0.526   0.833  0.00  0.00    +0.000 OA
ATOM      3  C   UNL     1       3.127  -0.264   1.918  0.00  0.00    +0.000 A 
ATOM      4  C   UNL     1       3.058   0.148   3.291  0.00  0.00    +0.000 A 
ATOM      5  C   UNL     1       3.169  -0.845   4.258  0.00  0.00    +0.000 A 
ATOM      6  C   UNL     1       3.184  -2.185   3.849  0.00  0.00    +0.000 A 
ATOM      7  C   UNL     1       3.156  -2.542   2.489  0.00  0.00    +0.000 A 
ATOM      8  C   UNL     1       3.356  -1.606   1.503  0.00  0.00    +0.000 A 
ATOM      9  C   UNL     1       3.435  -2.028  -0.220  0.00  0.00    +0.000 C 
ATOM     10  C   UNL     1       4.119  -3.843  -1.103  0.00  0.00    +0.000 C 
ATOM     11  C   UNL     1       3.266  -5.449  -0.674  0.00  0.00    +0.000 C 
ATOM     12  N   UNL     1       2.176  -4.651  -0.471  0.00  0.00    +0.000 NA
ATOM     13  C   UNL     1       0.866  -5.105  -0.243  0.00  0.00    +0.000 C 
ATOM     14  C   UNL     1       2.711  -3.716   0.465  0.00  0.00    +0.000 C 
ATOM     15  C   UNL     1       2.908  -3.897   1.955  0.00  0.00    +0.000 C 
ATOM     16  C   UNL     1       2.064  -2.590  -0.394  0.00  0.00    +0.000 C 
ATOM     17  C   UNL     1       1.921  -2.173  -2.007  0.00  0.00    +0.000 C 
ATOM     18  C   UNL     1       2.575  -0.797  -2.515  0.00  0.00    +0.000 C 
ATOM     19  C   UNL     1       2.642   0.235  -1.474  0.00  0.00    +0.000 C 
ATOM     20  O   UNL     1       2.765   1.436  -1.647  0.00  0.00    +0.000 OA
ENDROOT
BRANCH   4  21
ATOM     21  O   UNL     1       2.947   1.403   3.846  0.00  0.00    +0.000 OA
ATOM     22  H   UNL     1       2.860   2.133   3.214  0.00  0.00    +0.000 HD
ENDBRANCH   4  21
BRANCH  16  23
ATOM     23  O   UNL     1       0.838  -2.256   0.254  0.00  0.00    +0.000 OA
ATOM     24  H   UNL     1       0.827  -2.699   1.120  0.00  0.00    +0.000 HD
ENDBRANCH  16  23
TORSDOF 2
