REMARK  Name = Oxyphenonium
REMARK  13 active torsions:
REMARK  status: ('A' for Active; 'I' for Inactive)
REMARK    1  A    between atoms: C_1  and  C_2
REMARK    2  A    between atoms: C_2  and  N_3
REMARK    3  A    between atoms: N_3  and  C_4
REMARK    4  A    between atoms: N_3  and  C_5
REMARK    5  A    between atoms: N_3  and  C_7
REMARK    6  A    between atoms: C_5  and  C_6
REMARK    7  A    between atoms: C_7  and  C_8
REMARK    8  A    between atoms: C_8  and  O_9
REMARK    9  A    between atoms: O_9  and  C_10
REMARK   10  A    between atoms: C_10  and  C_12
REMARK   11  A    between atoms: C_12  and  O_13
REMARK   12  A    between atoms: C_12  and  C_14
REMARK   13  A    between atoms: C_12  and  C_20
REMARK                            x       y       z     vdW  Elec       q    Type
REMARK                         _______ _______ _______ _____ _____    ______ ____
ROOT
ATOM      1  C   UNL     1       8.636   1.894  -3.510  0.00  0.00    +0.000 C 
ENDROOT
BRANCH   1   2
ATOM      2  C   UNL     1       9.208   0.446  -3.364  0.00  0.00    +0.000 C 
ATOM      3  C   UNL     1       9.677   0.118  -1.943  0.00  0.00    +0.000 C 
ATOM      4  C   UNL     1      10.335  -1.249  -1.882  0.00  0.00    +0.000 C 
ATOM      5  C   UNL     1       9.399  -2.326  -2.408  0.00  0.00    +0.000 C 
ATOM      6  C   UNL     1       8.951  -2.026  -3.837  0.00  0.00    +0.000 C 
ATOM      7  C   UNL     1       8.286  -0.657  -3.929  0.00  0.00    +0.000 C 
ENDBRANCH   1   2
BRANCH   1   8
ATOM      8  C   UNL     1       9.152   2.617  -4.753  0.00  0.00    +0.000 A 
ATOM      9  C   UNL     1       9.871   1.992  -5.786  0.00  0.00    +0.000 A 
ATOM     10  C   UNL     1      10.362   2.726  -6.861  0.00  0.00    +0.000 A 
ATOM     11  C   UNL     1      10.036   4.070  -6.987  0.00  0.00    +0.000 A 
ATOM     12  C   UNL     1       9.290   4.703  -5.999  0.00  0.00    +0.000 A 
ATOM     13  C   UNL     1       8.877   3.991  -4.880  0.00  0.00    +0.000 A 
ENDBRANCH   1   8
BRANCH   1  14
ATOM     14  C   UNL     1       7.084   1.915  -3.509  0.00  0.00    +0.000 C 
ATOM     15  O   UNL     1       6.359   2.340  -4.392  0.00  0.00    +0.000 OA
BRANCH  14  16
ATOM     16  O   UNL     1       6.587   1.374  -2.338  0.00  0.00    +0.000 OA
BRANCH  16  17
ATOM     17  C   UNL     1       5.161   1.342  -2.392  0.00  0.00    +0.000 C 
BRANCH  17  18
ATOM     18  C   UNL     1       4.565   0.646  -1.164  0.00  0.00    +0.000 C 
BRANCH  18  19
ATOM     19  N   UNL     1       2.983   0.629  -1.170  0.00  0.00    +0.000 N 
ATOM     20  C   UNL     1       2.534  -0.151  -2.410  0.00  0.00    +0.000 C 
BRANCH  19  22
ATOM     21  C   UNL     1       1.049  -0.330   0.261  0.00  0.00    +0.000 C 
ATOM     22  C   UNL     1       2.550  -0.119   0.121  0.00  0.00    +0.000 C 
ENDBRANCH  19  22
BRANCH  19  23
ATOM     23  C   UNL     1       2.498   2.097  -1.190  0.00  0.00    +0.000 C 
ATOM     24  C   UNL     1       1.001   2.295  -1.305  0.00  0.00    +0.000 C 
ENDBRANCH  19  23
ENDBRANCH  18  19
ENDBRANCH  17  18
ENDBRANCH  16  17
ENDBRANCH  14  16
ENDBRANCH   1  14
BRANCH   1  25
ATOM     25  O   UNL     1       9.069   2.706  -2.397  0.00  0.00    +0.000 OA
ATOM     26  H   UNL     1       8.771   2.290  -1.572  0.00  0.00    +0.000 HD
ENDBRANCH   1  25
TORSDOF 10
