REMARK  Name = Oxyphencyclimine
REMARK  8 active torsions:
REMARK  status: ('A' for Active; 'I' for Inactive)
REMARK    1  A    between atoms: C_1  and  N_2
REMARK    2  A    between atoms: C_7  and  C_8
REMARK    3  A    between atoms: C_8  and  O_9
REMARK    4  A    between atoms: O_9  and  C_10
REMARK    5  A    between atoms: C_10  and  C_12
REMARK    6  A    between atoms: C_12  and  O_13
REMARK    7  A    between atoms: C_12  and  C_14
REMARK    8  A    between atoms: C_12  and  C_20
REMARK                            x       y       z     vdW  Elec       q    Type
REMARK                         _______ _______ _______ _____ _____    ______ ____
ROOT
ATOM      1  C   UNL     1       3.613  -6.091   0.034  0.00  0.00    +0.000 C 
ENDROOT
BRANCH   1   2
ATOM      2  C   UNL     1       4.541  -6.036   1.343  0.00  0.00    +0.000 C 
ATOM      3  C   UNL     1       4.342  -4.742   2.155  0.00  0.00    +0.000 C 
ATOM      4  C   UNL     1       5.119  -4.678   3.457  0.00  0.00    +0.000 C 
ATOM      5  C   UNL     1       4.835  -5.883   4.332  0.00  0.00    +0.000 C 
ATOM      6  C   UNL     1       5.170  -7.155   3.583  0.00  0.00    +0.000 C 
ATOM      7  C   UNL     1       4.372  -7.247   2.297  0.00  0.00    +0.000 C 
ENDBRANCH   1   2
BRANCH   1   8
ATOM      8  C   UNL     1       2.864  -7.444  -0.046  0.00  0.00    +0.000 A 
ATOM      9  C   UNL     1       1.514  -7.568   0.331  0.00  0.00    +0.000 A 
ATOM     10  C   UNL     1       0.905  -8.796   0.543  0.00  0.00    +0.000 A 
ATOM     11  C   UNL     1       1.623  -9.958   0.338  0.00  0.00    +0.000 A 
ATOM     12  C   UNL     1       2.959  -9.885  -0.053  0.00  0.00    +0.000 A 
ATOM     13  C   UNL     1       3.570  -8.643  -0.268  0.00  0.00    +0.000 A 
ENDBRANCH   1   8
BRANCH   1  14
ATOM     14  C   UNL     1       2.629  -4.854  -0.078  0.00  0.00    +0.000 C 
ATOM     15  O   UNL     1       1.401  -4.857   0.003  0.00  0.00    +0.000 OA
BRANCH  14  16
ATOM     16  O   UNL     1       3.296  -3.676  -0.214  0.00  0.00    +0.000 OA
BRANCH  16  17
ATOM     17  C   UNL     1       2.409  -2.575  -0.012  0.00  0.00    +0.000 C 
BRANCH  17  24
ATOM     18  C   UNL     1       0.907  -0.087   0.068  0.00  0.00    +0.000 C 
ATOM     19  N   UNL     1       2.365  -0.080   0.084  0.00  0.00    +0.000 N 
ATOM     20  C   UNL     1       2.962   1.231   0.030  0.00  0.00    +0.000 C 
ATOM     21  C   UNL     1       4.469   1.250   0.031  0.00  0.00    +0.000 C 
ATOM     22  C   UNL     1       5.207  -0.068   0.034  0.00  0.00    +0.000 C 
ATOM     23  N   UNL     1       4.410  -1.273   0.042  0.00  0.00    +0.000 NA
ATOM     24  C   UNL     1       3.129  -1.225   0.042  0.00  0.00    +0.000 C 
ENDBRANCH  17  24
ENDBRANCH  16  17
ENDBRANCH  14  16
ENDBRANCH   1  14
BRANCH   1  25
ATOM     25  O   UNL     1       4.502  -6.042  -1.105  0.00  0.00    +0.000 OA
ATOM     26  H   UNL     1       4.972  -5.188  -1.059  0.00  0.00    +0.000 HD
ENDBRANCH   1  25
TORSDOF 7
