REMARK  Name = Oxyphenbutazone
REMARK  7 active torsions:
REMARK  status: ('A' for Active; 'I' for Inactive)
REMARK    1  A    between atoms: C_1  and  C_2
REMARK    2  A    between atoms: C_2  and  C_3
REMARK    3  A    between atoms: C_3  and  C_4
REMARK    4  A    between atoms: C_4  and  C_5
REMARK    5  A    between atoms: N_8  and  C_19
REMARK    6  A    between atoms: N_9  and  C_12
REMARK    7  A    between atoms: C_15  and  O_16
REMARK                            x       y       z     vdW  Elec       q    Type
REMARK                         _______ _______ _______ _____ _____    ______ ____
ROOT
ATOM      1  C   UNL     1       4.905  -2.424   1.594  0.00  0.00    +0.000 C 
ATOM      2  C   UNL     1       4.011  -2.891   2.731  0.00  0.00    +0.000 C 
ATOM      3  O   UNL     1       3.399  -2.160   3.503  0.00  0.00    +0.000 OA
ATOM      4  N   UNL     1       4.134  -4.294   2.801  0.00  0.00    +0.000 N 
ATOM      5  N   UNL     1       4.878  -4.762   1.691  0.00  0.00    +0.000 N 
ATOM      6  C   UNL     1       5.153  -3.694   0.811  0.00  0.00    +0.000 C 
ATOM      7  O   UNL     1       5.535  -3.741  -0.354  0.00  0.00    +0.000 OA
ENDROOT
BRANCH   5   8
ATOM      8  C   UNL     1       4.720  -6.093   1.204  0.00  0.00    +0.000 A 
ATOM      9  C   UNL     1       5.848  -6.756   0.703  0.00  0.00    +0.000 A 
ATOM     10  C   UNL     1       5.798  -8.118   0.366  0.00  0.00    +0.000 A 
ATOM     11  C   UNL     1       4.599  -8.811   0.482  0.00  0.00    +0.000 A 
ATOM     12  C   UNL     1       3.453  -8.157   0.919  0.00  0.00    +0.000 A 
ATOM     13  C   UNL     1       3.513  -6.805   1.298  0.00  0.00    +0.000 A 
BRANCH  11  14
ATOM     14  O   UNL     1       4.496 -10.139   0.187  0.00  0.00    +0.000 OA
ATOM     15  H   UNL     1       5.366 -10.487  -0.069  0.00  0.00    +0.000 HD
ENDBRANCH  11  14
ENDBRANCH   5   8
BRANCH   4  16
ATOM     16  C   UNL     1       4.257  -4.881   4.101  0.00  0.00    +0.000 A 
ATOM     17  C   UNL     1       3.141  -4.877   4.947  0.00  0.00    +0.000 A 
ATOM     18  C   UNL     1       3.219  -5.386   6.249  0.00  0.00    +0.000 A 
ATOM     19  C   UNL     1       4.406  -5.945   6.711  0.00  0.00    +0.000 A 
ATOM     20  C   UNL     1       5.529  -5.951   5.885  0.00  0.00    +0.000 A 
ATOM     21  C   UNL     1       5.458  -5.425   4.583  0.00  0.00    +0.000 A 
ENDBRANCH   4  16
BRANCH   1  22
ATOM     22  C   UNL     1       4.445  -1.205   0.782  0.00  0.00    +0.000 C 
BRANCH  22  23
ATOM     23  C   UNL     1       2.929  -1.112   0.696  0.00  0.00    +0.000 C 
BRANCH  23  25
ATOM     24  C   UNL     1       0.920   0.084  -0.094  0.00  0.00    +0.000 C 
ATOM     25  C   UNL     1       2.440   0.078  -0.113  0.00  0.00    +0.000 C 
ENDBRANCH  23  25
ENDBRANCH  22  23
ENDBRANCH   1  22
TORSDOF 6
