REMARK  Name = Oxyphenisatin acetate
REMARK  8 active torsions:
REMARK  status: ('A' for Active; 'I' for Inactive)
REMARK    1  A    between atoms: C_1  and  C_2
REMARK    2  A    between atoms: C_2  and  O_4
REMARK    3  A    between atoms: O_4  and  C_5
REMARK    4  A    between atoms: C_8  and  C_11
REMARK    5  A    between atoms: C_11  and  C_21
REMARK    6  A    between atoms: C_24  and  O_25
REMARK    7  A    between atoms: O_25  and  C_26
REMARK    8  A    between atoms: C_26  and  C_27
REMARK                            x       y       z     vdW  Elec       q    Type
REMARK                         _______ _______ _______ _____ _____    ______ ____
ROOT
ATOM      1  C   UNL     1       9.465   0.658   1.323  0.00  0.00    +0.000 C 
ATOM      2  C   UNL     1       8.898  -0.698   1.705  0.00  0.00    +0.000 C 
ATOM      3  O   UNL     1       9.392  -1.753   1.497  0.00  0.00    +0.000 OA
ATOM      4  N   UNL     1       8.220  -0.223   2.913  0.00  0.00    +0.000 N 
ATOM      5  C   UNL     1       9.180   0.015   3.826  0.00  0.00    +0.000 A 
ATOM      6  C   UNL     1       8.679  -0.502   5.097  0.00  0.00    +0.000 A 
ATOM      7  C   UNL     1       9.458  -1.107   6.014  0.00  0.00    +0.000 A 
ATOM      8  C   UNL     1      10.699  -1.302   5.457  0.00  0.00    +0.000 A 
ATOM      9  C   UNL     1      11.118  -0.677   3.985  0.00  0.00    +0.000 A 
ATOM     10  C   UNL     1      10.315   0.303   3.065  0.00  0.00    +0.000 A 
ATOM     11  H   UNL     1       8.053   0.775   2.911  0.00  0.00    +0.000 HD
ENDROOT
BRANCH   1  15
ATOM     12  C   UNL     1       4.747   1.084   0.642  0.00  0.00    +0.000 A 
ATOM     13  C   UNL     1       5.387   1.541   1.792  0.00  0.00    +0.000 A 
ATOM     14  C   UNL     1       6.806   1.782   1.856  0.00  0.00    +0.000 A 
ATOM     15  C   UNL     1       7.717   1.246   0.915  0.00  0.00    +0.000 A 
ATOM     16  C   UNL     1       6.987   0.834  -0.297  0.00  0.00    +0.000 A 
ATOM     17  C   UNL     1       5.549   0.836  -0.451  0.00  0.00    +0.000 A 
BRANCH  12  18
ATOM     18  O   UNL     1       3.319   1.011   0.622  0.00  0.00    +0.000 OA
BRANCH  18  20
ATOM     19  C   UNL     1       1.149   0.112  -0.019  0.00  0.00    +0.000 C 
ATOM     20  C   UNL     1       2.657  -0.016  -0.073  0.00  0.00    +0.000 C 
ATOM     21  O   UNL     1       3.208  -0.938  -0.663  0.00  0.00    +0.000 OA
ENDBRANCH  18  20
ENDBRANCH  12  18
ENDBRANCH   1  15
BRANCH   1  22
ATOM     22  C   UNL     1      10.025   0.691  -0.284  0.00  0.00    +0.000 A 
ATOM     23  C   UNL     1      10.592  -0.446  -0.856  0.00  0.00    +0.000 A 
ATOM     24  C   UNL     1      10.872  -0.621  -2.244  0.00  0.00    +0.000 A 
ATOM     25  C   UNL     1      10.454   0.290  -3.203  0.00  0.00    +0.000 A 
ATOM     26  C   UNL     1       9.822   1.425  -2.744  0.00  0.00    +0.000 A 
ATOM     27  C   UNL     1       9.597   1.628  -1.334  0.00  0.00    +0.000 A 
BRANCH  25  28
ATOM     28  O   UNL     1      10.716  -0.052  -4.575  0.00  0.00    +0.000 OA
BRANCH  28  29
ATOM     29  C   UNL     1      10.390   0.402  -5.870  0.00  0.00    +0.000 C 
ATOM     30  C   UNL     1       9.517   1.611  -5.961  0.00  0.00    +0.000 C 
ATOM     31  O   UNL     1      10.822  -0.149  -6.881  0.00  0.00    +0.000 OA
ENDBRANCH  28  29
ENDBRANCH  25  28
ENDBRANCH   1  22
TORSDOF 6
