REMARK  Name = Oxyquinoline
REMARK  1 active torsions:
REMARK  status: ('A' for Active; 'I' for Inactive)
REMARK    1  A    between atoms: O_1  and  C_2
REMARK                            x       y       z     vdW  Elec       q    Type
REMARK                         _______ _______ _______ _____ _____    ______ ____
ROOT
ATOM      1  C   UNL     1      -1.311   0.726   0.006  0.00  0.00    +0.000 A 
ATOM      2  C   UNL     1      -2.299  -0.263   0.014  0.00  0.00    +0.000 A 
ATOM      3  C   UNL     1      -1.928  -1.604   0.000  0.00  0.00    +0.000 A 
ATOM      4  C   UNL     1      -0.577  -1.948  -0.010  0.00  0.00    +0.000 A 
ATOM      5  C   UNL     1       0.415  -0.951  -0.004  0.00  0.00    +0.000 A 
ATOM      6  C   UNL     1       0.055   0.417  -0.002  0.00  0.00    +0.000 A 
ATOM      7  N   UNL     1       0.990   1.392  -0.003  0.00  0.00    +0.000 NA
ATOM      8  C   UNL     1       2.290   1.043   0.003  0.00  0.00    +0.000 A 
ATOM      9  C   UNL     1       2.733  -0.264   0.009  0.00  0.00    +0.000 A 
ATOM     10  C   UNL     1       1.779  -1.274   0.004  0.00  0.00    +0.000 A 
ENDROOT
BRANCH   1  11
ATOM     11  O   UNL     1      -1.684   2.051   0.008  0.00  0.00    +0.000 OA
ATOM     12  H   UNL     1      -2.649   2.121  -0.002  0.00  0.00    +0.000 HD
ENDBRANCH   1  11
TORSDOF 1
