REMARK  Name = Oxytetracycline
REMARK  11 active torsions:
REMARK  status: ('A' for Active; 'I' for Inactive)
REMARK    1  A    between atoms: C_3  and  O_4
REMARK    2  A    between atoms: C_15  and  O_16
REMARK    3  A    between atoms: C_17  and  C_18
REMARK    4  A    between atoms: C_17  and  O_19
REMARK    5  A    between atoms: C_20  and  O_21
REMARK    6  A    between atoms: C_22  and  O_23
REMARK    7  A    between atoms: C_26  and  C_27
REMARK    8  A    between atoms: C_30  and  O_31
REMARK    9  A    between atoms: C_32  and  N_33
REMARK   10  A    between atoms: N_33  and  C_34
REMARK   11  A    between atoms: N_33  and  C_35
REMARK                            x       y       z     vdW  Elec       q    Type
REMARK                         _______ _______ _______ _____ _____    ______ ____
ROOT
ATOM      1  C   UNL     1       1.521   0.302  -0.014  0.00  0.00    +0.000 C 
ATOM      2  C   UNL     1       1.905   0.200   1.676  0.00  0.00    +0.000 C 
ATOM      3  C   UNL     1       1.656  -0.986   2.501  0.00  0.00    +0.000 C 
ATOM      4  C   UNL     1       2.268  -2.111   1.856  0.00  0.00    +0.000 C 
ATOM      5  C   UNL     1       2.288  -3.385   2.623  0.00  0.00    +0.000 C 
ATOM      6  O   UNL     1       2.494  -4.441   2.040  0.00  0.00    +0.000 OA
ATOM      7  C   UNL     1       2.134  -3.202   4.116  0.00  0.00    +0.000 A 
ATOM      8  C   UNL     1       2.191  -1.911   4.676  0.00  0.00    +0.000 A 
ATOM      9  C   UNL     1       2.077  -1.697   6.048  0.00  0.00    +0.000 A 
ATOM     10  C   UNL     1       1.842  -2.730   6.896  0.00  0.00    +0.000 A 
ATOM     11  C   UNL     1       1.802  -4.012   6.375  0.00  0.00    +0.000 A 
ATOM     12  C   UNL     1       1.956  -4.255   4.998  0.00  0.00    +0.000 A 
ATOM     13  C   UNL     1       2.364  -0.694   3.845  0.00  0.00    +0.000 C 
ATOM     14  C   UNL     1       1.688   0.528   4.541  0.00  0.00    +0.000 C 
ATOM     15  C   UNL     1       2.850  -1.812   0.696  0.00  0.00    +0.000 C 
ATOM     16  C   UNL     1       2.827  -0.209  -0.048  0.00  0.00    +0.000 C 
ATOM     17  C   UNL     1       2.835   1.741   0.502  0.00  0.00    +0.000 C 
ATOM     18  O   UNL     1       2.059   2.424   1.286  0.00  0.00    +0.000 OA
ATOM     19  C   UNL     1       3.135   2.990  -0.273  0.00  0.00    +0.000 C 
ATOM     20  C   UNL     1       2.129   2.612  -1.134  0.00  0.00    +0.000 C 
ATOM     21  C   UNL     1       2.280   1.174  -1.520  0.00  0.00    +0.000 C 
ENDROOT
BRANCH  19  22
ATOM     22  C   UNL     1       4.605   3.166   0.135  0.00  0.00    +0.000 C 
ATOM     23  N   UNL     1       5.328   2.013   0.282  0.00  0.00    +0.000 N 
ATOM     24  O   UNL     1       5.142   4.255   0.293  0.00  0.00    +0.000 OA
ATOM     25  H   UNL     1       4.876   1.258  -0.207  0.00  0.00    +0.000 HD
ATOM     26  H   UNL     1       6.285   2.089  -0.027  0.00  0.00    +0.000 HD
ENDBRANCH  19  22
BRANCH  21  27
ATOM     27  N   UNL     1       3.943   1.116  -1.748  0.00  0.00    +0.000 NA
ATOM     28  C   UNL     1       4.784  -0.099  -1.828  0.00  0.00    +0.000 C 
ATOM     29  C   UNL     1       4.494   2.190  -2.572  0.00  0.00    +0.000 C 
ENDBRANCH  21  27
BRANCH   2  30
ATOM     30  O   UNL     1       1.061   1.045   2.389  0.00  0.00    +0.000 OA
ATOM     31  H   UNL     1       0.843   1.790   1.821  0.00  0.00    +0.000 HD
ENDBRANCH   2  30
BRANCH  12  32
ATOM     32  O   UNL     1       1.915  -5.532   4.533  0.00  0.00    +0.000 OA
ATOM     33  H   UNL     1       1.812  -6.143   5.277  0.00  0.00    +0.000 HD
ENDBRANCH  12  32
BRANCH  13  34
ATOM     34  O   UNL     1       3.789  -0.508   3.714  0.00  0.00    +0.000 OA
ATOM     35  H   UNL     1       4.187  -1.293   3.286  0.00  0.00    +0.000 HD
ENDBRANCH  13  34
BRANCH  15  36
ATOM     36  O   UNL     1       3.242  -2.916  -0.111  0.00  0.00    +0.000 OA
ATOM     37  H   UNL     1       2.943  -3.755   0.342  0.00  0.00    +0.000 HD
ENDBRANCH  15  36
BRANCH  16  38
ATOM     38  O   UNL     1       2.585  -0.980  -1.317  0.00  0.00    +0.000 OA
ATOM     39  H   UNL     1       3.205  -1.743  -1.320  0.00  0.00    +0.000 HD
ENDBRANCH  16  38
BRANCH  20  40
ATOM     40  O   UNL     1       0.761   2.929  -0.945  0.00  0.00    +0.000 OA
ATOM     41  H   UNL     1       0.631   3.383  -0.084  0.00  0.00    +0.000 HD
ENDBRANCH  20  40
TORSDOF 8
