REMARK  Name = Ozanimod
REMARK  11 active torsions:
REMARK  status: ('A' for Active; 'I' for Inactive)
REMARK    1  A    between atoms: C_1  and  C_2
REMARK    2  A    between atoms: C_2  and  C_3
REMARK    3  A    between atoms: C_2  and  O_4
REMARK    4  A    between atoms: O_4  and  C_5
REMARK    5  A    between atoms: C_6  and  C_29
REMARK    6  A    between atoms: C_8  and  C_11
REMARK    7  A    between atoms: C_13  and  C_16
REMARK    8  A    between atoms: C_20  and  N_21
REMARK    9  A    between atoms: N_21  and  C_22
REMARK   10  A    between atoms: C_22  and  C_23
REMARK   11  A    between atoms: C_23  and  O_24
REMARK                            x       y       z     vdW  Elec       q    Type
REMARK                         _______ _______ _______ _____ _____    ______ ____
ROOT
ATOM      1  C   UNL     1       8.620   1.994   1.323  0.00  0.00    +0.000 A 
ATOM      2  N   UNL     1       9.389   1.339   2.158  0.00  0.00    +0.000 NA
ATOM      3  C   UNL     1      10.637   1.831   1.861  0.00  0.00    +0.000 A 
ATOM      4  N   UNL     1      10.649   2.771   0.899  0.00  0.00    +0.000 NA
ATOM      5  O   UNL     1       9.304   2.858   0.516  0.00  0.00    +0.000 OA
ENDROOT
BRANCH   3   6
ATOM      6  C   UNL     1      11.819   1.372   2.569  0.00  0.00    +0.000 A 
ATOM      7  C   UNL     1      12.202   0.030   2.581  0.00  0.00    +0.000 A 
ATOM      8  C   UNL     1      11.574  -1.136   1.871  0.00  0.00    +0.000 C 
ATOM      9  C   UNL     1      12.182  -2.324   2.637  0.00  0.00    +0.000 C 
ATOM     10  C   UNL     1      13.590  -1.871   3.084  0.00  0.00    +0.000 C 
ATOM     11  C   UNL     1      13.350  -0.392   3.277  0.00  0.00    +0.000 A 
ATOM     12  C   UNL     1      14.133   0.523   3.969  0.00  0.00    +0.000 A 
ATOM     13  C   UNL     1      13.737   1.860   3.999  0.00  0.00    +0.000 A 
ATOM     14  C   UNL     1      12.593   2.283   3.304  0.00  0.00    +0.000 A 
BRANCH  10  15
ATOM     15  N   UNL     1      14.060  -2.554   4.290  0.00  0.00    +0.000 NA
ATOM     16  H   UNL     1      14.823  -2.012   4.695  0.00  0.00    +0.000 HD
BRANCH  15  17
ATOM     17  C   UNL     1      14.580  -3.887   3.974  0.00  0.00    +0.000 C 
BRANCH  17  18
ATOM     18  C   UNL     1      15.084  -4.602   5.232  0.00  0.00    +0.000 C 
BRANCH  18  19
ATOM     19  O   UNL     1      15.590  -5.891   4.898  0.00  0.00    +0.000 OA
ATOM     20  H   UNL     1      14.854  -6.401   4.518  0.00  0.00    +0.000 HD
ENDBRANCH  18  19
ENDBRANCH  17  18
ENDBRANCH  15  17
ENDBRANCH  10  15
ENDBRANCH   3   6
BRANCH   1  24
ATOM     21  C   UNL     1       4.398   1.485   0.707  0.00  0.00    +0.000 A 
ATOM     22  C   UNL     1       5.314   1.445  -0.361  0.00  0.00    +0.000 A 
ATOM     23  C   UNL     1       6.692   1.544  -0.127  0.00  0.00    +0.000 A 
ATOM     24  C   UNL     1       7.189   1.888   1.123  0.00  0.00    +0.000 A 
ATOM     25  C   UNL     1       6.279   2.095   2.162  0.00  0.00    +0.000 A 
ATOM     26  C   UNL     1       4.899   1.877   1.965  0.00  0.00    +0.000 A 
BRANCH  22  27
ATOM     27  C   UNL     1       4.998   1.399  -1.764  0.00  0.00    +0.000 C 
ATOM     28  N   UNL     1       4.819   1.286  -2.899  0.00  0.00    +0.000 NA
ENDBRANCH  22  27
BRANCH  21  29
ATOM     29  O   UNL     1       3.031   1.320   0.617  0.00  0.00    +0.000 OA
BRANCH  29  31
ATOM     30  C   UNL     1       0.975   0.100   0.140  0.00  0.00    +0.000 C 
ATOM     31  C   UNL     1       2.503   0.060   0.116  0.00  0.00    +0.000 C 
ATOM     32  C   UNL     1       2.829  -0.190  -1.336  0.00  0.00    +0.000 C 
ENDBRANCH  29  31
ENDBRANCH  21  29
ENDBRANCH   1  24
TORSDOF 9
