REMARK  Name = Ozenoxacin
REMARK  7 active torsions:
REMARK  status: ('A' for Active; 'I' for Inactive)
REMARK    1  A    between atoms: C_1  and  N_2
REMARK    2  A    between atoms: C_6  and  C_10
REMARK    3  A    between atoms: C_8  and  C_9
REMARK    4  A    between atoms: C_16  and  C_25
REMARK    5  A    between atoms: N_18  and  C_19
REMARK    6  A    between atoms: C_23  and  C_24
REMARK    7  A    between atoms: C_25  and  O_26
REMARK                            x       y       z     vdW  Elec       q    Type
REMARK                         _______ _______ _______ _____ _____    ______ ____
ROOT
ATOM      1  C   UNL     1       4.942   2.876   3.917  0.00  0.00    +0.000 A 
ATOM      2  C   UNL     1       4.699   2.856   5.071  0.00  0.00    +0.000 A 
ATOM      3  C   UNL     1       5.459   3.905   6.534  0.00  0.00    +0.000 A 
ATOM      4  C   UNL     1       5.181   3.897   7.707  0.00  0.00    +0.000 A 
ATOM      5  C   UNL     1       5.848   4.713   8.583  0.00  0.00    +0.000 A 
ATOM      6  O   UNL     1       6.713   5.443   8.171  0.00  0.00    +0.000 OA
ATOM      7  C   UNL     1       5.398   4.573   9.949  0.00  0.00    +0.000 A 
ATOM      8  C   UNL     1       4.438   3.666   9.984  0.00  0.00    +0.000 A 
ATOM      9  N   UNL     1       4.029   2.960   8.541  0.00  0.00    +0.000 N 
ATOM     10  C   UNL     1       4.704   3.242   6.745  0.00  0.00    +0.000 A 
ATOM     11  C   UNL     1       5.501   3.618   4.799  0.00  0.00    +0.000 A 
ATOM     12  C   UNL     1       6.246   3.942   2.905  0.00  0.00    +0.000 C 
ENDROOT
BRANCH   1  18
ATOM     13  C   UNL     1       1.006  -0.072   0.015  0.00  0.00    +0.000 C 
ATOM     14  N   UNL     1       2.442  -0.108   0.086  0.00  0.00    +0.000 N 
ATOM     15  C   UNL     1       3.123   0.590   1.054  0.00  0.00    +0.000 A 
ATOM     16  N   UNL     1       4.102   1.401   0.652  0.00  0.00    +0.000 NA
ATOM     17  C   UNL     1       4.681   2.137   1.594  0.00  0.00    +0.000 A 
ATOM     18  C   UNL     1       4.384   2.121   2.921  0.00  0.00    +0.000 A 
ATOM     19  C   UNL     1       3.402   1.243   3.316  0.00  0.00    +0.000 A 
ATOM     20  C   UNL     1       2.764   0.467   2.392  0.00  0.00    +0.000 A 
ATOM     21  C   UNL     1       1.721  -0.487   2.837  0.00  0.00    +0.000 C 
ATOM     22  H   UNL     1       2.958  -0.511  -0.679  0.00  0.00    +0.000 HD
ENDBRANCH   1  18
BRANCH   9  23
ATOM     23  C   UNL     1       2.763   1.980   9.484  0.00  0.00    +0.000 C 
ATOM     24  C   UNL     1       1.985   1.198   8.508  0.00  0.00    +0.000 C 
ATOM     25  C   UNL     1       2.732   0.407   9.548  0.00  0.00    +0.000 C 
ENDBRANCH   9  23
BRANCH   7  26
ATOM     26  C   UNL     1       6.002   5.392  10.974  0.00  0.00    +0.000 C 
ATOM     27  O   UNL     1       6.896   6.170  10.680  0.00  0.00    +0.000 OA
BRANCH  26  28
ATOM     28  O   UNL     1       5.565   5.286  12.244  0.00  0.00    +0.000 OA
ATOM     29  H   UNL     1       4.857   4.676  12.504  0.00  0.00    +0.000 HD
ENDBRANCH  26  28
ENDBRANCH   7  26
TORSDOF 4
