REMARK  Name = P-nitrobiphenyl
REMARK  2 active torsions:
REMARK  status: ('A' for Active; 'I' for Inactive)
REMARK    1  A    between atoms: N_2  and  C_4
REMARK    2  A    between atoms: C_7  and  C_10
REMARK                            x       y       z     vdW  Elec       q    Type
REMARK                         _______ _______ _______ _____ _____    ______ ____
ROOT
ATOM      1  C   UNL     1       2.866   1.022   0.563  0.00  0.00    +0.000 A 
ATOM      2  C   UNL     1       4.048   1.521   0.011  0.00  0.00    +0.000 A 
ATOM      3  C   UNL     1       4.799   2.433   0.754  0.00  0.00    +0.000 A 
ATOM      4  C   UNL     1       4.345   2.910   2.000  0.00  0.00    +0.000 A 
ATOM      5  C   UNL     1       3.145   2.397   2.521  0.00  0.00    +0.000 A 
ATOM      6  C   UNL     1       2.401   1.457   1.807  0.00  0.00    +0.000 A 
ENDROOT
BRANCH   4   7
ATOM      7  C   UNL     1       5.147   3.890   2.743  0.00  0.00    +0.000 A 
ATOM      8  C   UNL     1       5.555   5.094   2.144  0.00  0.00    +0.000 A 
ATOM      9  C   UNL     1       6.465   5.937   2.784  0.00  0.00    +0.000 A 
ATOM     10  C   UNL     1       6.913   5.630   4.066  0.00  0.00    +0.000 A 
ATOM     11  C   UNL     1       6.466   4.474   4.701  0.00  0.00    +0.000 A 
ATOM     12  C   UNL     1       5.591   3.609   4.042  0.00  0.00    +0.000 A 
ENDBRANCH   4   7
BRANCH   1  14
ATOM     13  O   UNL     1       0.911  -0.022  -0.075  0.00  0.00    +0.000 OA
ATOM     14  N   UNL     1       2.152  -0.049  -0.116  0.00  0.00    +0.000 N 
ATOM     15  O   UNL     1       2.830  -0.929  -0.657  0.00  0.00    +0.000 OA
ENDBRANCH   1  14
TORSDOF 2
