REMARK  Name = p-Phenylenediamine
REMARK  2 active torsions:
REMARK  status: ('A' for Active; 'I' for Inactive)
REMARK    1  A    between atoms: N_1  and  C_2
REMARK    2  A    between atoms: C_5  and  N_6
REMARK                            x       y       z     vdW  Elec       q    Type
REMARK                         _______ _______ _______ _____ _____    ______ ____
ROOT
ATOM      1  C   UNL     1       2.388   0.045  -0.105  0.00  0.00    +0.000 A 
ATOM      2  C   UNL     1       3.090   1.251  -0.093  0.00  0.00    +0.000 A 
ATOM      3  C   UNL     1       4.478   1.272  -0.284  0.00  0.00    +0.000 A 
ATOM      4  C   UNL     1       5.203   0.089  -0.412  0.00  0.00    +0.000 A 
ATOM      5  C   UNL     1       4.520  -1.118  -0.247  0.00  0.00    +0.000 A 
ATOM      6  C   UNL     1       3.123  -1.139  -0.135  0.00  0.00    +0.000 A 
ENDROOT
BRANCH   1   7
ATOM      7  N   UNL     1       1.014   0.021   0.162  0.00  0.00    +0.000 N 
ATOM      8  H   UNL     1       0.524   0.870  -0.099  0.00  0.00    +0.000 HD
ATOM      9  H   UNL     1       0.544  -0.813  -0.179  0.00  0.00    +0.000 HD
ENDBRANCH   1   7
BRANCH   4  10
ATOM     10  N   UNL     1       6.602   0.115  -0.451  0.00  0.00    +0.000 N 
ATOM     11  H   UNL     1       6.983   0.950  -0.887  0.00  0.00    +0.000 HD
ATOM     12  H   UNL     1       7.024  -0.733  -0.814  0.00  0.00    +0.000 HD
ENDBRANCH   4  10
TORSDOF 2
