REMARK  Name = Pacritinib
REMARK  4 active torsions:
REMARK  status: ('A' for Active; 'I' for Inactive)
REMARK    1  A    between atoms: C_1  and  C_2
REMARK    2  A    between atoms: C_1  and  O_8
REMARK    3  A    between atoms: C_2  and  N_3
REMARK    4  A    between atoms: O_8  and  C_9
REMARK                            x       y       z     vdW  Elec       q    Type
REMARK                         _______ _______ _______ _____ _____    ______ ____
ROOT
ATOM      1  C   UNL     1       3.676   0.670   1.128  0.00  0.00    +0.000 A 
ATOM      2  C   UNL     1       2.836   1.410   2.014  0.00  0.00    +0.000 A 
ATOM      3  C   UNL     1       3.249   2.609   2.585  0.00  0.00    +0.000 A 
ATOM      4  C   UNL     1       4.440   3.175   2.144  0.00  0.00    +0.000 A 
ATOM      5  N   UNL     1       4.816   4.457   2.601  0.00  0.00    +0.000 N 
ATOM      6  C   UNL     1       5.975   5.121   2.206  0.00  0.00    +0.000 A 
ATOM      7  N   UNL     1       6.017   5.469   0.912  0.00  0.00    +0.000 NA
ATOM      8  C   UNL     1       7.045   6.215   0.512  0.00  0.00    +0.000 A 
ATOM      9  C   UNL     1       7.998   6.689   1.367  0.00  0.00    +0.000 A 
ATOM     10  C   UNL     1       8.033   6.087   2.606  0.00  0.00    +0.000 A 
ATOM     11  N   UNL     1       6.991   5.342   3.064  0.00  0.00    +0.000 NA
ATOM     12  C   UNL     1       9.238   6.206   3.459  0.00  0.00    +0.000 A 
ATOM     13  C   UNL     1      10.026   5.091   3.809  0.00  0.00    +0.000 A 
ATOM     14  C   UNL     1      11.066   5.190   4.766  0.00  0.00    +0.000 A 
ATOM     15  C   UNL     1      11.762   3.993   5.370  0.00  0.00    +0.000 C 
ATOM     16  O   UNL     1      11.263   2.845   4.753  0.00  0.00    +0.000 OA
ATOM     17  C   UNL     1      11.780   1.604   5.218  0.00  0.00    +0.000 C 
ATOM     18  C   UNL     1      10.930   0.683   4.327  0.00  0.00    +0.000 C 
ATOM     19  C   UNL     1      10.668  -0.557   4.133  0.00  0.00    +0.000 C 
ATOM     20  C   UNL     1       9.363  -1.117   2.984  0.00  0.00    +0.000 C 
ATOM     21  O   UNL     1       8.321  -0.149   1.916  0.00  0.00    +0.000 OA
ATOM     22  C   UNL     1       6.724   0.042   1.062  0.00  0.00    +0.000 C 
ATOM     23  C   UNL     1       5.142   1.024   1.105  0.00  0.00    +0.000 A 
ATOM     24  C   UNL     1       5.306   2.415   1.297  0.00  0.00    +0.000 A 
ATOM     25  C   UNL     1      11.441   6.451   5.222  0.00  0.00    +0.000 A 
ATOM     26  C   UNL     1      10.807   7.583   4.727  0.00  0.00    +0.000 A 
ATOM     27  C   UNL     1       9.677   7.457   3.912  0.00  0.00    +0.000 A 
ATOM     28  H   UNL     1       4.448   4.764   3.489  0.00  0.00    +0.000 HD
ENDROOT
BRANCH   1  29
ATOM     29  O   UNL     1       2.939  -0.093   0.137  0.00  0.00    +0.000 OA
BRANCH  29  30
ATOM     30  C   UNL     1       1.412   0.020   0.091  0.00  0.00    +0.000 C 
BRANCH  30  31
ATOM     31  C   UNL     1       0.605  -1.110  -0.665  0.00  0.00    +0.000 C 
BRANCH  31  32
ATOM     32  N   UNL     1      -0.906  -1.115  -0.637  0.00  0.00    +0.000 NA
ATOM     33  C   UNL     1      -1.517   0.210  -0.435  0.00  0.00    +0.000 C 
ATOM     34  C   UNL     1      -1.587   0.363   1.077  0.00  0.00    +0.000 C 
ATOM     35  C   UNL     1      -2.000  -1.027   1.521  0.00  0.00    +0.000 C 
ATOM     36  C   UNL     1      -1.468  -1.965   0.436  0.00  0.00    +0.000 C 
ENDBRANCH  31  32
ENDBRANCH  30  31
ENDBRANCH  29  30
ENDBRANCH   1  29
TORSDOF 4
