REMARK  Name = Padimate O
REMARK  13 active torsions:
REMARK  status: ('A' for Active; 'I' for Inactive)
REMARK    1  A    between atoms: C_1  and  C_2
REMARK    2  A    between atoms: C_2  and  C_3
REMARK    3  A    between atoms: C_3  and  C_4
REMARK    4  A    between atoms: C_4  and  C_5
REMARK    5  A    between atoms: C_5  and  C_6
REMARK    6  A    between atoms: C_5  and  C_8
REMARK    7  A    between atoms: C_6  and  C_7
REMARK    8  A    between atoms: C_8  and  O_9
REMARK    9  A    between atoms: O_9  and  C_10
REMARK   10  A    between atoms: C_10  and  C_12
REMARK   11  A    between atoms: C_15  and  N_18
REMARK   12  A    between atoms: N_18  and  C_19
REMARK   13  A    between atoms: N_18  and  C_20
REMARK                            x       y       z     vdW  Elec       q    Type
REMARK                         _______ _______ _______ _____ _____    ______ ____
ROOT
ATOM      1  C   UNL     1       8.376   0.453  -4.366  0.00  0.00    +0.000 C 
ATOM      2  O   UNL     1       9.171   0.316  -3.456  0.00  0.00    +0.000 OA
ENDROOT
BRANCH   1   3
ATOM      3  C   UNL     1       8.806   0.603  -5.780  0.00  0.00    +0.000 A 
ATOM      4  C   UNL     1       9.902  -0.124  -6.235  0.00  0.00    +0.000 A 
ATOM      5  C   UNL     1      10.453   0.138  -7.502  0.00  0.00    +0.000 A 
ATOM      6  C   UNL     1       9.891   1.055  -8.407  0.00  0.00    +0.000 A 
ATOM      7  C   UNL     1       8.794   1.780  -7.899  0.00  0.00    +0.000 A 
ATOM      8  C   UNL     1       8.252   1.564  -6.616  0.00  0.00    +0.000 A 
BRANCH   6   9
ATOM      9  N   UNL     1      10.393   1.243  -9.689  0.00  0.00    +0.000 N 
ATOM     10  C   UNL     1      11.470   0.418 -10.249  0.00  0.00    +0.000 C 
ATOM     11  C   UNL     1       9.742   2.109 -10.676  0.00  0.00    +0.000 C 
ENDBRANCH   6   9
ENDBRANCH   1   3
BRANCH   1  12
ATOM     12  O   UNL     1       7.019   0.479  -4.250  0.00  0.00    +0.000 OA
BRANCH  12  13
ATOM     13  C   UNL     1       6.539   0.356  -2.893  0.00  0.00    +0.000 C 
BRANCH  13  14
ATOM     14  C   UNL     1       4.986   0.380  -2.854  0.00  0.00    +0.000 C 
BRANCH  14  15
ATOM     15  C   UNL     1       4.478   1.699  -3.497  0.00  0.00    +0.000 C 
ATOM     16  C   UNL     1       2.974   1.831  -3.715  0.00  0.00    +0.000 C 
ENDBRANCH  14  15
BRANCH  14  17
ATOM     17  C   UNL     1       4.508   0.173  -1.390  0.00  0.00    +0.000 C 
BRANCH  17  18
ATOM     18  C   UNL     1       2.995   0.064  -1.252  0.00  0.00    +0.000 C 
BRANCH  18  20
ATOM     19  C   UNL     1       0.931   0.015   0.091  0.00  0.00    +0.000 C 
ATOM     20  C   UNL     1       2.456  -0.061   0.156  0.00  0.00    +0.000 C 
ENDBRANCH  18  20
ENDBRANCH  17  18
ENDBRANCH  14  17
ENDBRANCH  13  14
ENDBRANCH  12  13
ENDBRANCH   1  12
TORSDOF 9
