REMARK  Name = Palbociclib
REMARK  5 active torsions:
REMARK  status: ('A' for Active; 'I' for Inactive)
REMARK    1  A    between atoms: C_1  and  C_2
REMARK    2  A    between atoms: C_2  and  C_4
REMARK    3  A    between atoms: C_5  and  C_6
REMARK    4  A    between atoms: C_15  and  N_18
REMARK    5  A    between atoms: N_26  and  C_27
REMARK                            x       y       z     vdW  Elec       q    Type
REMARK                         _______ _______ _______ _____ _____    ______ ____
ROOT
ATOM      1  C   UNL     1       3.221   1.038   0.818  0.00  0.00    +0.000 A 
ATOM      2  C   UNL     1       4.193   1.708   0.164  0.00  0.00    +0.000 A 
ATOM      3  C   UNL     1       4.600   1.410  -1.254  0.00  0.00    +0.000 C 
ATOM      4  C   UNL     1       4.889   2.804   0.874  0.00  0.00    +0.000 A 
ATOM      5  C   UNL     1       5.891   3.586   0.321  0.00  0.00    +0.000 A 
ATOM      6  N   UNL     1       6.527   4.602   0.955  0.00  0.00    +0.000 NA
ATOM      7  C   UNL     1       6.172   4.845   2.223  0.00  0.00    +0.000 A 
ATOM      8  N   UNL     1       6.869   5.847   2.920  0.00  0.00    +0.000 N 
ATOM      9  C   UNL     1       6.513   6.301   4.203  0.00  0.00    +0.000 A 
ATOM     10  N   UNL     1       6.044   7.548   4.411  0.00  0.00    +0.000 NA
ATOM     11  C   UNL     1       5.625   7.852   5.686  0.00  0.00    +0.000 A 
ATOM     12  C   UNL     1       5.707   7.019   6.808  0.00  0.00    +0.000 A 
ATOM     13  C   UNL     1       6.269   5.772   6.559  0.00  0.00    +0.000 A 
ATOM     14  C   UNL     1       6.650   5.408   5.264  0.00  0.00    +0.000 A 
ATOM     15  N   UNL     1       5.204   4.140   2.840  0.00  0.00    +0.000 NA
ATOM     16  C   UNL     1       4.567   3.147   2.177  0.00  0.00    +0.000 A 
ATOM     17  N   UNL     1       3.532   2.419   2.845  0.00  0.00    +0.000 N 
ATOM     18  C   UNL     1       2.882   1.363   2.225  0.00  0.00    +0.000 A 
ATOM     19  O   UNL     1       2.026   0.665   2.784  0.00  0.00    +0.000 OA
ATOM     20  H   UNL     1       7.225   6.553   2.293  0.00  0.00    +0.000 HD
ENDROOT
BRANCH  12  21
ATOM     21  N   UNL     1       5.281   7.402   8.058  0.00  0.00    +0.000 N 
ATOM     22  C   UNL     1       3.872   7.692   8.357  0.00  0.00    +0.000 C 
ATOM     23  C   UNL     1       3.352   6.724   9.456  0.00  0.00    +0.000 C 
ATOM     24  N   UNL     1       4.180   6.741  10.682  0.00  0.00    +0.000 NA
ATOM     25  C   UNL     1       5.580   6.431  10.322  0.00  0.00    +0.000 C 
ATOM     26  C   UNL     1       6.151   7.375   9.240  0.00  0.00    +0.000 C 
ATOM     27  H   UNL     1       3.835   6.040  11.336  0.00  0.00    +0.000 HD
ENDBRANCH  12  21
BRANCH  17  28
ATOM     28  C   UNL     1       3.162   2.789   4.223  0.00  0.00    +0.000 C 
ATOM     29  C   UNL     1       1.668   3.104   4.395  0.00  0.00    +0.000 C 
ATOM     30  C   UNL     1       1.433   3.017   5.895  0.00  0.00    +0.000 C 
ATOM     31  C   UNL     1       2.462   2.020   6.426  0.00  0.00    +0.000 C 
ATOM     32  C   UNL     1       3.393   1.682   5.261  0.00  0.00    +0.000 C 
ENDBRANCH  17  28
BRANCH   1  34
ATOM     33  C   UNL     1       0.957   0.021   0.113  0.00  0.00    +0.000 C 
ATOM     34  C   UNL     1       2.463  -0.065   0.139  0.00  0.00    +0.000 C 
ATOM     35  O   UNL     1       3.055  -0.989  -0.416  0.00  0.00    +0.000 OA
ENDBRANCH   1  34
TORSDOF 3
