REMARK  Name = Paliperidone
REMARK  6 active torsions:
REMARK  status: ('A' for Active; 'I' for Inactive)
REMARK    1  A    between atoms: C_1  and  C_2
REMARK    2  A    between atoms: C_3  and  C_4
REMARK    3  A    between atoms: C_4  and  C_5
REMARK    4  A    between atoms: C_5  and  N_6
REMARK    5  A    between atoms: C_9  and  C_12
REMARK    6  A    between atoms: C_28  and  O_29
REMARK                            x       y       z     vdW  Elec       q    Type
REMARK                         _______ _______ _______ _____ _____    ______ ____
ROOT
ATOM      1  C   UNL     1       0.981  -2.595  -0.062  0.00  0.00    +0.000 C 
ENDROOT
BRANCH   1   2
ATOM      2  N   UNL     1       0.236  -3.873  -0.189  0.00  0.00    +0.000 NA
ATOM      3  C   UNL     1      -0.774  -3.750  -1.251  0.00  0.00    +0.000 C 
ATOM      4  C   UNL     1      -1.676  -5.021  -1.392  0.00  0.00    +0.000 C 
ATOM      5  C   UNL     1      -0.912  -6.381  -1.826  0.00  0.00    +0.000 C 
ATOM      6  C   UNL     1       0.261  -6.343  -0.702  0.00  0.00    +0.000 C 
ATOM      7  C   UNL     1       1.077  -5.035  -0.453  0.00  0.00    +0.000 C 
BRANCH   5   8
ATOM      8  C   UNL     1      -0.668  -6.294  -3.529  0.00  0.00    +0.000 A 
ATOM      9  N   UNL     1      -0.146  -5.081  -3.673  0.00  0.00    +0.000 NA
ATOM     10  O   UNL     1      -0.272  -4.790  -4.956  0.00  0.00    +0.000 OA
ATOM     11  C   UNL     1      -1.222  -5.596  -5.417  0.00  0.00    +0.000 A 
ATOM     12  C   UNL     1      -1.066  -6.966  -5.014  0.00  0.00    +0.000 A 
ATOM     13  C   UNL     1      -1.458  -7.422  -6.440  0.00  0.00    +0.000 A 
ATOM     14  C   UNL     1      -2.367  -6.801  -7.426  0.00  0.00    +0.000 A 
ATOM     15  C   UNL     1      -2.945  -5.633  -7.052  0.00  0.00    +0.000 A 
ATOM     16  F   UNL     1      -3.899  -5.002  -7.747  0.00  0.00    +0.000 F 
ATOM     17  C   UNL     1      -2.341  -5.006  -6.014  0.00  0.00    +0.000 A 
ENDBRANCH   5   8
ENDBRANCH   1   2
BRANCH   1  18
ATOM     18  C   UNL     1       2.511  -2.515   0.020  0.00  0.00    +0.000 C 
BRANCH  18  21
ATOM     19  C   UNL     1       1.066   0.455  -0.086  0.00  0.00    +0.000 C 
ATOM     20  C   UNL     1       2.543   0.106  -0.064  0.00  0.00    +0.000 A 
ATOM     21  C   UNL     1       3.117  -1.117  -0.020  0.00  0.00    +0.000 A 
ATOM     22  C   UNL     1       4.616  -1.142  -0.044  0.00  0.00    +0.000 A 
ATOM     23  O   UNL     1       5.223  -2.232   0.048  0.00  0.00    +0.000 OA
ATOM     24  N   UNL     1       5.279   0.056  -0.162  0.00  0.00    +0.000 N 
ATOM     25  C   UNL     1       6.741   0.021  -0.103  0.00  0.00    +0.000 C 
ATOM     26  C   UNL     1       7.412   1.314  -0.530  0.00  0.00    +0.000 C 
ATOM     27  C   UNL     1       6.759   2.467   0.215  0.00  0.00    +0.000 C 
ATOM     28  C   UNL     1       5.304   2.569  -0.210  0.00  0.00    +0.000 C 
ATOM     29  C   UNL     1       4.562   1.225  -0.131  0.00  0.00    +0.000 A 
ATOM     30  N   UNL     1       3.274   1.266  -0.095  0.00  0.00    +0.000 NA
BRANCH  28  31
ATOM     31  O   UNL     1       5.234   3.124  -1.521  0.00  0.00    +0.000 OA
ATOM     32  H   UNL     1       5.546   2.458  -2.155  0.00  0.00    +0.000 HD
ENDBRANCH  28  31
ENDBRANCH  18  21
ENDBRANCH   1  18
TORSDOF 5
