REMARK  Name = Palmitic Acid
REMARK  16 active torsions:
REMARK  status: ('A' for Active; 'I' for Inactive)
REMARK    1  A    between atoms: C_1  and  C_2
REMARK    2  A    between atoms: C_2  and  C_3
REMARK    3  A    between atoms: C_3  and  C_4
REMARK    4  A    between atoms: C_4  and  C_5
REMARK    5  A    between atoms: C_5  and  C_6
REMARK    6  A    between atoms: C_6  and  C_7
REMARK    7  A    between atoms: C_7  and  C_8
REMARK    8  A    between atoms: C_8  and  C_9
REMARK    9  A    between atoms: C_9  and  C_10
REMARK   10  A    between atoms: C_10  and  C_11
REMARK   11  A    between atoms: C_11  and  C_12
REMARK   12  A    between atoms: C_12  and  C_13
REMARK   13  A    between atoms: C_13  and  C_14
REMARK   14  A    between atoms: C_14  and  C_15
REMARK   15  A    between atoms: C_15  and  C_16
REMARK   16  A    between atoms: C_16  and  O_17
REMARK                            x       y       z     vdW  Elec       q    Type
REMARK                         _______ _______ _______ _____ _____    ______ ____
ROOT
ATOM      1  C   UNL     1      10.560  -4.216  -3.919  0.00  0.00    +0.000 C 
ENDROOT
BRANCH   1   2
ATOM      2  C   UNL     1       9.043  -4.212  -3.915  0.00  0.00    +0.000 C 
BRANCH   2   3
ATOM      3  C   UNL     1       8.533  -3.178  -2.929  0.00  0.00    +0.000 C 
BRANCH   3   4
ATOM      4  C   UNL     1       7.016  -3.174  -2.925  0.00  0.00    +0.000 C 
BRANCH   4   5
ATOM      5  C   UNL     1       6.505  -2.140  -1.939  0.00  0.00    +0.000 C 
BRANCH   5   6
ATOM      6  C   UNL     1       4.987  -2.135  -1.934  0.00  0.00    +0.000 C 
BRANCH   6   7
ATOM      7  C   UNL     1       4.474  -1.100  -0.947  0.00  0.00    +0.000 C 
BRANCH   7   8
ATOM      8  C   UNL     1       2.954  -1.093  -0.941  0.00  0.00    +0.000 C 
BRANCH   8  10
ATOM      9  C   UNL     1       0.916  -0.053   0.051  0.00  0.00    +0.000 C 
ATOM     10  C   UNL     1       2.432  -0.058   0.046  0.00  0.00    +0.000 C 
ENDBRANCH   8  10
ENDBRANCH   7   8
ENDBRANCH   6   7
ENDBRANCH   5   6
ENDBRANCH   4   5
ENDBRANCH   3   4
ENDBRANCH   2   3
ENDBRANCH   1   2
BRANCH   1  11
ATOM     11  C   UNL     1      11.068  -5.251  -4.906  0.00  0.00    +0.000 C 
BRANCH  11  12
ATOM     12  C   UNL     1      12.584  -5.258  -4.913  0.00  0.00    +0.000 C 
BRANCH  12  13
ATOM     13  C   UNL     1      13.098  -6.294  -5.900  0.00  0.00    +0.000 C 
BRANCH  13  14
ATOM     14  C   UNL     1      14.616  -6.284  -5.890  0.00  0.00    +0.000 C 
BRANCH  14  15
ATOM     15  C   UNL     1      15.193  -7.300  -6.859  0.00  0.00    +0.000 C 
BRANCH  15  16
ATOM     16  C   UNL     1      16.702  -7.353  -6.910  0.00  0.00    +0.000 C 
ATOM     17  O   UNL     1      17.295  -8.130  -7.651  0.00  0.00    +0.000 OA
BRANCH  16  18
ATOM     18  O   UNL     1      17.380  -6.511  -6.107  0.00  0.00    +0.000 OA
ATOM     19  H   UNL     1      16.863  -5.914  -5.538  0.00  0.00    +0.000 HD
ENDBRANCH  16  18
ENDBRANCH  15  16
ENDBRANCH  14  15
ENDBRANCH  13  14
ENDBRANCH  12  13
ENDBRANCH  11  12
ENDBRANCH   1  11
TORSDOF 15
