REMARK  Name = Palovarotene
REMARK  10 active torsions:
REMARK  status: ('A' for Active; 'I' for Inactive)
REMARK    1  A    between atoms: C_1  and  C_2
REMARK    2  A    between atoms: C_2  and  C_3
REMARK    3  A    between atoms: C_6  and  C_7
REMARK    4  A    between atoms: C_6  and  C_8
REMARK    5  A    between atoms: C_12  and  C_13
REMARK    6  A    between atoms: C_13  and  N_14
REMARK    7  A    between atoms: C_19  and  C_20
REMARK    8  A    between atoms: C_21  and  C_22
REMARK    9  A    between atoms: C_25  and  C_28
REMARK   10  A    between atoms: C_28  and  O_29
REMARK                            x       y       z     vdW  Elec       q    Type
REMARK                         _______ _______ _______ _____ _____    ______ ____
ROOT
ATOM      1  C   UNL     1       0.605   2.453  -1.304  0.00  0.00    +0.000 C 
ATOM      2  C   UNL     1       0.197   1.760   0.020  0.00  0.00    +0.000 C 
ATOM      3  C   UNL     1       0.850   2.520   1.209  0.00  0.00    +0.000 C 
ATOM      4  C   UNL     1      -1.306   1.907   0.244  0.00  0.00    +0.000 C 
ATOM      5  C   UNL     1      -2.191   0.755  -0.168  0.00  0.00    +0.000 C 
ATOM      6  C   UNL     1      -1.656  -0.692  -0.024  0.00  0.00    +0.000 C 
ATOM      7  C   UNL     1      -2.175  -1.427  -1.282  0.00  0.00    +0.000 C 
ATOM      8  C   UNL     1      -2.302  -1.320   1.226  0.00  0.00    +0.000 C 
ATOM      9  C   UNL     1      -0.141  -0.811   0.034  0.00  0.00    +0.000 A 
ATOM     10  C   UNL     1       0.667   0.319   0.001  0.00  0.00    +0.000 A 
ATOM     11  C   UNL     1       2.041   0.132  -0.095  0.00  0.00    +0.000 A 
ATOM     12  C   UNL     1       2.686  -1.103  -0.059  0.00  0.00    +0.000 A 
ATOM     13  C   UNL     1       1.899  -2.259   0.040  0.00  0.00    +0.000 A 
ATOM     14  C   UNL     1       0.493  -2.089   0.072  0.00  0.00    +0.000 A 
ENDROOT
BRANCH  13  15
ATOM     15  C   UNL     1       2.434  -3.644   0.096  0.00  0.00    +0.000 C 
ATOM     16  C   UNL     1       3.731  -3.986   0.090  0.00  0.00    +0.000 C 
BRANCH  16  17
ATOM     17  C   UNL     1       4.315  -5.309   0.091  0.00  0.00    +0.000 A 
ATOM     18  C   UNL     1       5.500  -5.514   0.812  0.00  0.00    +0.000 A 
ATOM     19  C   UNL     1       6.195  -6.710   0.679  0.00  0.00    +0.000 A 
ATOM     20  C   UNL     1       5.658  -7.734  -0.110  0.00  0.00    +0.000 A 
ATOM     21  C   UNL     1       4.493  -7.490  -0.862  0.00  0.00    +0.000 A 
ATOM     22  C   UNL     1       3.833  -6.274  -0.777  0.00  0.00    +0.000 A 
BRANCH  20  23
ATOM     23  C   UNL     1       6.218  -9.109  -0.161  0.00  0.00    +0.000 C 
ATOM     24  O   UNL     1       5.687  -9.992  -0.829  0.00  0.00    +0.000 OA
BRANCH  23  25
ATOM     25  O   UNL     1       7.301  -9.357   0.598  0.00  0.00    +0.000 OA
ATOM     26  H   UNL     1       7.661  -8.636   1.138  0.00  0.00    +0.000 HD
ENDBRANCH  23  25
ENDBRANCH  20  23
ENDBRANCH  16  17
ENDBRANCH  13  15
BRANCH  12  27
ATOM     27  C   UNL     1       4.192  -1.116  -0.128  0.00  0.00    +0.000 C 
BRANCH  27  28
ATOM     28  N   UNL     1       4.857   0.178  -0.149  0.00  0.00    +0.000 N 
ATOM     29  C   UNL     1       4.817   1.121   0.840  0.00  0.00    +0.000 A 
ATOM     30  C   UNL     1       5.488   2.206   0.338  0.00  0.00    +0.000 A 
ATOM     31  C   UNL     1       5.973   1.782  -0.913  0.00  0.00    +0.000 A 
ATOM     32  N   UNL     1       5.602   0.537  -1.208  0.00  0.00    +0.000 NA
ENDBRANCH  27  28
ENDBRANCH  12  27
TORSDOF 6
