REMARK  Name = Palonosetron
REMARK  1 active torsions:
REMARK  status: ('A' for Active; 'I' for Inactive)
REMARK    1  A    between atoms: N_14  and  C_16
REMARK                            x       y       z     vdW  Elec       q    Type
REMARK                         _______ _______ _______ _____ _____    ______ ____
ROOT
ATOM      1  C   UNL     1       1.971  -0.099   0.021  0.00  0.00    +0.000 C 
ATOM      2  C   UNL     1       2.477   0.443   1.364  0.00  0.00    +0.000 C 
ATOM      3  C   UNL     1       2.271   1.956   1.549  0.00  0.00    +0.000 C 
ATOM      4  C   UNL     1       1.632   2.663   0.350  0.00  0.00    +0.000 C 
ATOM      5  C   UNL     1       2.286   2.200  -0.921  0.00  0.00    +0.000 A 
ATOM      6  C   UNL     1       2.461   0.816  -1.084  0.00  0.00    +0.000 A 
ATOM      7  C   UNL     1       3.097   0.319  -2.225  0.00  0.00    +0.000 A 
ATOM      8  C   UNL     1       3.523   1.200  -3.226  0.00  0.00    +0.000 A 
ATOM      9  C   UNL     1       3.335   2.579  -3.066  0.00  0.00    +0.000 A 
ATOM     10  C   UNL     1       2.725   3.080  -1.912  0.00  0.00    +0.000 A 
ATOM     11  C   UNL     1       3.308  -1.157  -2.325  0.00  0.00    +0.000 C 
ATOM     12  O   UNL     1       4.292  -1.622  -2.893  0.00  0.00    +0.000 OA
ATOM     13  N   UNL     1       2.405  -1.904  -1.579  0.00  0.00    +0.000 N 
ATOM     14  C   UNL     1       2.438  -1.544  -0.179  0.00  0.00    +0.000 C 
ENDROOT
BRANCH  13  15
ATOM     15  C   UNL     1       1.382  -2.844  -2.115  0.00  0.00    +0.000 C 
ATOM     16  C   UNL     1       1.982  -4.040  -2.905  0.00  0.00    +0.000 C 
ATOM     17  N   UNL     1       1.408  -4.173  -4.272  0.00  0.00    +0.000 NA
ATOM     18  C   UNL     1      -0.049  -4.390  -4.178  0.00  0.00    +0.000 C 
ATOM     19  C   UNL     1      -0.743  -3.239  -3.431  0.00  0.00    +0.000 C 
ATOM     20  C   UNL     1       0.304  -2.173  -3.018  0.00  0.00    +0.000 C 
ATOM     21  C   UNL     1       0.957  -1.714  -4.329  0.00  0.00    +0.000 C 
ATOM     22  C   UNL     1       1.654  -2.908  -5.000  0.00  0.00    +0.000 C 
ENDBRANCH  13  15
TORSDOF 1
