REMARK  Name = Pamidronic acid
REMARK  10 active torsions:
REMARK  status: ('A' for Active; 'I' for Inactive)
REMARK    1  A    between atoms: N_1  and  C_2
REMARK    2  A    between atoms: C_2  and  C_3
REMARK    3  A    between atoms: C_3  and  C_4
REMARK    4  A    between atoms: C_4  and  O_5
REMARK    5  A    between atoms: C_4  and  P_6
REMARK    6  A    between atoms: C_4  and  P_10
REMARK    7  A    between atoms: P_6  and  O_7
REMARK    8  A    between atoms: P_6  and  O_8
REMARK    9  A    between atoms: P_10  and  O_11
REMARK   10  A    between atoms: P_10  and  O_12
REMARK                            x       y       z     vdW  Elec       q    Type
REMARK                         _______ _______ _______ _____ _____    ______ ____
ROOT
ATOM      1  C   UNL     1       4.556  -1.210   0.757  0.00  0.00    +0.000 C 
ENDROOT
BRANCH   1   2
ATOM      2  O   UNL     1       5.048  -1.160  -0.649  0.00  0.00    +0.000 OA
ATOM      3  H   UNL     1       4.595  -0.432  -1.119  0.00  0.00    +0.000 HD
ENDBRANCH   1   2
BRANCH   1   4
ATOM      4  P   UNL     1       5.166   0.267   1.650  0.00  0.00    +0.000 P 
ATOM      5  O   UNL     1       5.682   1.515   2.406  0.00  0.00    +0.000 OA
BRANCH   4   6
ATOM      6  O   UNL     1       6.135  -0.738   2.507  0.00  0.00    +0.000 OA
ATOM      7  H   UNL     1       5.734  -1.359   3.169  0.00  0.00    +0.000 HD
ENDBRANCH   4   6
BRANCH   4   8
ATOM      8  O   UNL     1       6.220   0.534   0.399  0.00  0.00    +0.000 OA
ATOM      9  H   UNL     1       6.394  -0.222  -0.195  0.00  0.00    +0.000 HD
ENDBRANCH   4   8
ENDBRANCH   1   4
BRANCH   1  10
ATOM     10  P   UNL     1       5.072  -2.932   1.242  0.00  0.00    +0.000 P 
ATOM     11  O   UNL     1       5.234  -3.124   2.719  0.00  0.00    +0.000 OA
BRANCH  10  12
ATOM     12  O   UNL     1       4.020  -3.925   0.549  0.00  0.00    +0.000 OA
ATOM     13  H   UNL     1       3.081  -3.806   0.782  0.00  0.00    +0.000 HD
ENDBRANCH  10  12
BRANCH  10  14
ATOM     14  O   UNL     1       6.379  -3.185   0.338  0.00  0.00    +0.000 OA
ATOM     15  H   UNL     1       6.484  -2.516  -0.371  0.00  0.00    +0.000 HD
ENDBRANCH  10  14
ENDBRANCH   1  10
BRANCH   1  16
ATOM     16  C   UNL     1       3.008  -1.125   0.711  0.00  0.00    +0.000 C 
BRANCH  16  17
ATOM     17  C   UNL     1       2.455   0.160   0.091  0.00  0.00    +0.000 C 
BRANCH  17  18
ATOM     18  N   UNL     1       1.005   0.098   0.099  0.00  0.00    +0.000 NA
ATOM     19  H   UNL     1       0.619   0.922  -0.367  0.00  0.00    +0.000 HD
ATOM     20  H   UNL     1       0.638   0.122   1.051  0.00  0.00    +0.000 HD
ENDBRANCH  17  18
ENDBRANCH  16  17
ENDBRANCH   1  16
TORSDOF 10
