REMARK  Name = Pancuronium
REMARK  12 active torsions:
REMARK  status: ('A' for Active; 'I' for Inactive)
REMARK    1  A    between atoms: C_4  and  N_39
REMARK    2  A    between atoms: C_5  and  O_6
REMARK    3  A    between atoms: O_6  and  C_7
REMARK    4  A    between atoms: C_7  and  C_8
REMARK    5  A    between atoms: C_10  and  C_11
REMARK    6  A    between atoms: C_23  and  O_24
REMARK    7  A    between atoms: O_24  and  C_25
REMARK    8  A    between atoms: C_25  and  C_26
REMARK    9  A    between atoms: C_28  and  N_32
REMARK   10  A    between atoms: C_30  and  C_31
REMARK   11  A    between atoms: N_32  and  C_33
REMARK   12  A    between atoms: N_39  and  C_40
REMARK                            x       y       z     vdW  Elec       q    Type
REMARK                         _______ _______ _______ _____ _____    ______ ____
ROOT
ATOM      1  C   UNL     1       2.003  -0.096   0.033  0.00  0.00    +0.000 C 
ATOM      2  C   UNL     1       2.588  -1.321  -0.652  0.00  0.00    +0.000 C 
ATOM      3  C   UNL     1       2.693  -0.906  -2.151  0.00  0.00    +0.000 C 
ATOM      4  C   UNL     1       2.425   0.651  -2.167  0.00  0.00    +0.000 C 
ATOM      5  C   UNL     1       2.645   1.091  -0.704  0.00  0.00    +0.000 C 
ATOM      6  C   UNL     1       4.139   1.317  -0.372  0.00  0.00    +0.000 C 
ATOM      7  C   UNL     1       1.911   2.356  -0.285  0.00  0.00    +0.000 C 
ATOM      8  C   UNL     1       1.999   2.599   1.184  0.00  0.00    +0.000 C 
ATOM      9  C   UNL     1       1.561   1.376   1.990  0.00  0.00    +0.000 C 
ATOM     10  C   UNL     1       2.220   0.035   1.526  0.00  0.00    +0.000 C 
ATOM     11  C   UNL     1       1.713  -1.161   2.332  0.00  0.00    +0.000 C 
ATOM     12  C   UNL     1       1.787  -0.933   3.842  0.00  0.00    +0.000 C 
ATOM     13  C   UNL     1       1.108   0.385   4.204  0.00  0.00    +0.000 C 
ATOM     14  C   UNL     1       0.813   0.489   5.718  0.00  0.00    +0.000 C 
ATOM     15  C   UNL     1       0.204   1.859   6.150  0.00  0.00    +0.000 C 
ATOM     16  C   UNL     1       0.906   3.097   5.507  0.00  0.00    +0.000 C 
ATOM     17  C   UNL     1       1.049   2.874   3.969  0.00  0.00    +0.000 C 
ATOM     18  C   UNL     1       1.828   1.606   3.497  0.00  0.00    +0.000 C 
ATOM     19  C   UNL     1       3.442   1.749   3.510  0.00  0.00    +0.000 C 
ENDROOT
BRANCH  16  20
ATOM     20  N   UNL     1       2.258   3.486   6.237  0.00  0.00    +0.000 N 
ATOM     21  C   UNL     1       3.117   2.273   6.257  0.00  0.00    +0.000 C 
ATOM     22  C   UNL     1       2.821   4.747   5.496  0.00  0.00    +0.000 C 
ATOM     23  C   UNL     1       4.181   5.153   6.022  0.00  0.00    +0.000 C 
ATOM     24  C   UNL     1       4.090   5.394   7.518  0.00  0.00    +0.000 C 
ATOM     25  C   UNL     1       3.634   4.133   8.231  0.00  0.00    +0.000 C 
ATOM     26  C   UNL     1       2.206   3.769   7.766  0.00  0.00    +0.000 C 
ENDBRANCH  16  20
BRANCH   3  27
ATOM     27  N   UNL     1       4.039  -1.421  -2.832  0.00  0.00    +0.000 N 
ATOM     28  C   UNL     1       4.042  -2.941  -2.614  0.00  0.00    +0.000 C 
ATOM     29  C   UNL     1       4.025  -1.135  -4.378  0.00  0.00    +0.000 C 
ATOM     30  C   UNL     1       5.395  -1.373  -5.014  0.00  0.00    +0.000 C 
ATOM     31  C   UNL     1       6.472  -0.542  -4.335  0.00  0.00    +0.000 C 
ATOM     32  C   UNL     1       6.597  -1.040  -2.915  0.00  0.00    +0.000 C 
ATOM     33  C   UNL     1       5.289  -0.790  -2.211  0.00  0.00    +0.000 C 
ENDBRANCH   3  27
BRANCH   4  34
ATOM     34  O   UNL     1       3.282   1.306  -3.102  0.00  0.00    +0.000 OA
BRANCH  34  35
ATOM     35  C   UNL     1       3.263   2.574  -3.559  0.00  0.00    +0.000 C 
ATOM     36  C   UNL     1       2.236   3.503  -3.012  0.00  0.00    +0.000 C 
ATOM     37  O   UNL     1       4.114   2.935  -4.342  0.00  0.00    +0.000 OA
ENDBRANCH  34  35
ENDBRANCH   4  34
BRANCH  15  38
ATOM     38  O   UNL     1      -1.187   1.801   5.737  0.00  0.00    +0.000 OA
BRANCH  38  39
ATOM     39  C   UNL     1      -2.147   2.720   6.002  0.00  0.00    +0.000 C 
ATOM     40  C   UNL     1      -1.769   3.972   6.746  0.00  0.00    +0.000 C 
ATOM     41  O   UNL     1      -3.275   2.564   5.570  0.00  0.00    +0.000 OA
ENDBRANCH  38  39
ENDBRANCH  15  38
TORSDOF 6
