REMARK  Name = Panobinostat
REMARK  9 active torsions:
REMARK  status: ('A' for Active; 'I' for Inactive)
REMARK    1  A    between atoms: C_1  and  C_2
REMARK    2  A    between atoms: C_3  and  C_4
REMARK    3  A    between atoms: C_4  and  C_5
REMARK    4  A    between atoms: C_5  and  N_6
REMARK    5  A    between atoms: N_6  and  C_7
REMARK    6  A    between atoms: C_7  and  C_8
REMARK    7  A    between atoms: C_11  and  C_12
REMARK    8  A    between atoms: C_13  and  C_14
REMARK    9  A    between atoms: N_16  and  O_17
REMARK                            x       y       z     vdW  Elec       q    Type
REMARK                         _______ _______ _______ _____ _____    ______ ____
ROOT
ATOM      1  N   UNL     1      -3.641  -4.121   0.114  0.00  0.00    +0.000 NA
ATOM      2  H   UNL     1      -3.352  -4.546   0.994  0.00  0.00    +0.000 HD
ENDROOT
BRANCH   1   3
ATOM      3  C   UNL     1      -3.160  -2.766   0.048  0.00  0.00    +0.000 C 
BRANCH   3   4
ATOM      4  C   UNL     1      -1.652  -2.607   0.063  0.00  0.00    +0.000 C 
BRANCH   4   7
ATOM      5  C   UNL     1      -3.504   0.236  -0.008  0.00  0.00    +0.000 C 
ATOM      6  C   UNL     1      -2.029  -0.013   0.000  0.00  0.00    +0.000 A 
ATOM      7  C   UNL     1      -1.238  -1.161   0.025  0.00  0.00    +0.000 A 
ATOM      8  C   UNL     1       0.131  -0.732   0.009  0.00  0.00    +0.000 A 
ATOM      9  C   UNL     1       1.366  -1.414  -0.000  0.00  0.00    +0.000 A 
ATOM     10  C   UNL     1       2.558  -0.683  -0.022  0.00  0.00    +0.000 A 
ATOM     11  C   UNL     1       2.532   0.709  -0.013  0.00  0.00    +0.000 A 
ATOM     12  C   UNL     1       1.320   1.409   0.003  0.00  0.00    +0.000 A 
ATOM     13  C   UNL     1       0.138   0.658   0.002  0.00  0.00    +0.000 A 
ATOM     14  N   UNL     1      -1.173   1.065  -0.012  0.00  0.00    +0.000 N 
ATOM     15  H   UNL     1      -1.470   2.030  -0.035  0.00  0.00    +0.000 HD
ENDBRANCH   4   7
ENDBRANCH   3   4
ENDBRANCH   1   3
BRANCH   1  16
ATOM     16  C   UNL     1      -5.111  -4.117   0.055  0.00  0.00    +0.000 C 
BRANCH  16  17
ATOM     17  C   UNL     1      -5.603  -5.534   0.113  0.00  0.00    +0.000 A 
ATOM     18  C   UNL     1      -6.850  -5.857   0.649  0.00  0.00    +0.000 A 
ATOM     19  C   UNL     1      -7.205  -7.202   0.820  0.00  0.00    +0.000 A 
ATOM     20  C   UNL     1      -6.364  -8.236   0.370  0.00  0.00    +0.000 A 
ATOM     21  C   UNL     1      -5.134  -7.889  -0.191  0.00  0.00    +0.000 A 
ATOM     22  C   UNL     1      -4.773  -6.563  -0.340  0.00  0.00    +0.000 A 
BRANCH  20  23
ATOM     23  C   UNL     1      -6.805  -9.643   0.435  0.00  0.00    +0.000 C 
ATOM     24  C   UNL     1      -6.100 -10.681  -0.051  0.00  0.00    +0.000 C 
BRANCH  24  25
ATOM     25  C   UNL     1      -6.619 -12.066  -0.015  0.00  0.00    +0.000 C 
ATOM     26  O   UNL     1      -7.720 -12.366   0.447  0.00  0.00    +0.000 OA
ATOM     27  N   UNL     1      -5.756 -12.987  -0.545  0.00  0.00    +0.000 N 
ATOM     28  H   UNL     1      -4.842 -12.794  -0.937  0.00  0.00    +0.000 HD
BRANCH  27  29
ATOM     29  O   UNL     1      -6.167 -14.338  -0.538  0.00  0.00    +0.000 OA
ATOM     30  H   UNL     1      -7.054 -14.287  -0.121  0.00  0.00    +0.000 HD
ENDBRANCH  27  29
ENDBRANCH  24  25
ENDBRANCH  20  23
ENDBRANCH  16  17
ENDBRANCH   1  16
TORSDOF 8
