REMARK  Name = Pantoprazole
REMARK  9 active torsions:
REMARK  status: ('A' for Active; 'I' for Inactive)
REMARK    1  A    between atoms: C_1  and  O_2
REMARK    2  A    between atoms: O_2  and  C_3
REMARK    3  A    between atoms: C_4  and  O_5
REMARK    4  A    between atoms: O_5  and  C_6
REMARK    5  A    between atoms: C_7  and  C_8
REMARK    6  A    between atoms: C_8  and  S_9
REMARK    7  A    between atoms: S_9  and  C_11
REMARK    8  A    between atoms: C_17  and  O_18
REMARK    9  A    between atoms: O_18  and  C_19
REMARK                            x       y       z     vdW  Elec       q    Type
REMARK                         _______ _______ _______ _____ _____    ______ ____
ROOT
ATOM      1  C   UNL     1       1.194   1.961  -6.424  0.00  0.00    +0.000 A 
ATOM      2  N   UNL     1       0.756   1.217  -7.393  0.00  0.00    +0.000 NA
ATOM      3  C   UNL     1       0.508   2.112  -8.403  0.00  0.00    +0.000 A 
ATOM      4  C   UNL     1       0.795   3.415  -8.018  0.00  0.00    +0.000 A 
ATOM      5  N   UNL     1       1.177   3.299  -6.719  0.00  0.00    +0.000 N 
ATOM      6  C   UNL     1       0.696   4.523  -8.851  0.00  0.00    +0.000 A 
ATOM      7  C   UNL     1       0.298   4.262 -10.164  0.00  0.00    +0.000 A 
ATOM      8  C   UNL     1      -0.014   2.957 -10.574  0.00  0.00    +0.000 A 
ATOM      9  C   UNL     1       0.059   1.872  -9.696  0.00  0.00    +0.000 A 
ATOM     10  H   UNL     1       1.425   4.017  -6.062  0.00  0.00    +0.000 HD
ENDROOT
BRANCH   1  11
ATOM     11  S   UNL     1       1.538   1.525  -4.834  0.00  0.00    +0.000 S 
ATOM     12  O   UNL     1       1.938   2.799  -4.145  0.00  0.00    +0.000 OA
BRANCH  11  13
ATOM     13  C   UNL     1       2.919   0.352  -4.840  0.00  0.00    +0.000 C 
BRANCH  13  16
ATOM     14  C   UNL     1       2.981  -0.409  -1.022  0.00  0.00    +0.000 A 
ATOM     15  C   UNL     1       2.526   0.037  -2.264  0.00  0.00    +0.000 A 
ATOM     16  C   UNL     1       3.296  -0.213  -3.444  0.00  0.00    +0.000 A 
ATOM     17  N   UNL     1       4.428  -0.971  -3.408  0.00  0.00    +0.000 NA
ATOM     18  C   UNL     1       4.813  -1.442  -2.200  0.00  0.00    +0.000 A 
ATOM     19  C   UNL     1       4.154  -1.166  -1.008  0.00  0.00    +0.000 A 
BRANCH  14  21
ATOM     20  C   UNL     1       1.125  -0.258   0.544  0.00  0.00    +0.000 C 
ATOM     21  O   UNL     1       2.504  -0.109   0.229  0.00  0.00    +0.000 OA
ENDBRANCH  14  21
BRANCH  15  22
ATOM     22  O   UNL     1       1.348   0.624  -2.534  0.00  0.00    +0.000 OA
ATOM     23  C   UNL     1       0.554   1.377  -1.675  0.00  0.00    +0.000 C 
ENDBRANCH  15  22
ENDBRANCH  13  16
ENDBRANCH  11  13
ENDBRANCH   1  11
BRANCH   7  24
ATOM     24  O   UNL     1       0.247   5.372 -10.964  0.00  0.00    +0.000 OA
BRANCH  24  25
ATOM     25  C   UNL     1      -0.104   5.133 -12.316  0.00  0.00    +0.000 C 
ATOM     26  F   UNL     1      -1.376   4.665 -12.373  0.00  0.00    +0.000 F 
ATOM     27  F   UNL     1      -0.102   6.327 -12.958  0.00  0.00    +0.000 F 
ENDBRANCH  24  25
ENDBRANCH   7  24
TORSDOF 7
