REMARK  Name = Pantethine
REMARK  27 active torsions:
REMARK  status: ('A' for Active; 'I' for Inactive)
REMARK    1  A    between atoms: C_1  and  C_2
REMARK    2  A    between atoms: C_2  and  C_3
REMARK    3  A    between atoms: C_2  and  C_4
REMARK    4  A    between atoms: C_2  and  C_6
REMARK    5  A    between atoms: C_4  and  O_5
REMARK    6  A    between atoms: C_6  and  O_7
REMARK    7  A    between atoms: C_6  and  C_8
REMARK    8  A    between atoms: N_10  and  C_11
REMARK    9  A    between atoms: C_11  and  C_12
REMARK   10  A    between atoms: C_12  and  C_13
REMARK   11  A    between atoms: N_15  and  C_16
REMARK   12  A    between atoms: C_16  and  C_17
REMARK   13  A    between atoms: C_17  and  S_18
REMARK   14  A    between atoms: S_18  and  S_19
REMARK   15  A    between atoms: S_19  and  C_20
REMARK   16  A    between atoms: C_20  and  C_21
REMARK   17  A    between atoms: C_21  and  N_22
REMARK   18  A    between atoms: C_23  and  C_25
REMARK   19  A    between atoms: C_25  and  C_26
REMARK   20  A    between atoms: C_26  and  N_27
REMARK   21  A    between atoms: C_28  and  C_30
REMARK   22  A    between atoms: C_30  and  O_31
REMARK   23  A    between atoms: C_30  and  C_32
REMARK   24  A    between atoms: C_32  and  C_33
REMARK   25  A    between atoms: C_32  and  C_34
REMARK   26  A    between atoms: C_32  and  C_35
REMARK   27  A    between atoms: C_35  and  O_36
REMARK                            x       y       z     vdW  Elec       q    Type
REMARK                         _______ _______ _______ _____ _____    ______ ____
ROOT
ATOM      1  S   UNL     1      29.124  -3.220  -4.806  0.00  0.00    +0.000 S 
ENDROOT
BRANCH   1   2
ATOM      2  S   UNL     1      28.585  -2.999  -6.795  0.00  0.00    +0.000 S 
BRANCH   2   3
ATOM      3  C   UNL     1      27.987  -1.249  -6.918  0.00  0.00    +0.000 C 
BRANCH   3   4
ATOM      4  C   UNL     1      27.542  -0.916  -8.355  0.00  0.00    +0.000 C 
BRANCH   4   5
ATOM      5  N   UNL     1      27.051   0.457  -8.542  0.00  0.00    +0.000 N 
ATOM      6  C   UNL     1      26.621   0.882  -9.787  0.00  0.00    +0.000 C 
ATOM      7  O   UNL     1      26.635   0.137 -10.767  0.00  0.00    +0.000 OA
ATOM      8  H   UNL     1      27.026   1.095  -7.756  0.00  0.00    +0.000 HD
BRANCH   6   9
ATOM      9  C   UNL     1      26.133   2.326  -9.862  0.00  0.00    +0.000 C 
BRANCH   9  10
ATOM     10  C   UNL     1      25.684   2.673 -11.281  0.00  0.00    +0.000 C 
BRANCH  10  11
ATOM     11  N   UNL     1      25.213   4.045 -11.453  0.00  0.00    +0.000 N 
ATOM     12  C   UNL     1      24.739   4.426 -12.692  0.00  0.00    +0.000 C 
ATOM     13  O   UNL     1      24.688   3.619 -13.621  0.00  0.00    +0.000 OA
ATOM     14  H   UNL     1      25.138   4.676 -10.665  0.00  0.00    +0.000 HD
BRANCH  12  15
ATOM     15  C   UNL     1      24.248   5.892 -12.849  0.00  0.00    +0.000 C 
BRANCH  15  16
ATOM     16  C   UNL     1      24.732   6.551 -14.184  0.00  0.00    +0.000 C 
ATOM     17  C   UNL     1      24.196   5.812 -15.433  0.00  0.00    +0.000 C 
ATOM     18  C   UNL     1      24.214   8.006 -14.279  0.00  0.00    +0.000 C 
BRANCH  16  19
ATOM     19  C   UNL     1      26.277   6.572 -14.189  0.00  0.00    +0.000 C 
BRANCH  19  20
ATOM     20  O   UNL     1      26.801   7.181 -15.363  0.00  0.00    +0.000 OA
ATOM     21  H   UNL     1      26.531   6.637 -16.123  0.00  0.00    +0.000 HD
ENDBRANCH  19  20
ENDBRANCH  16  19
ENDBRANCH  15  16
BRANCH  15  22
ATOM     22  O   UNL     1      22.822   5.923 -12.758  0.00  0.00    +0.000 OA
ATOM     23  H   UNL     1      22.476   5.395 -13.501  0.00  0.00    +0.000 HD
ENDBRANCH  15  22
ENDBRANCH  12  15
ENDBRANCH  10  11
ENDBRANCH   9  10
ENDBRANCH   6   9
ENDBRANCH   4   5
ENDBRANCH   3   4
ENDBRANCH   2   3
ENDBRANCH   1   2
BRANCH   1  24
ATOM     24  C   UNL     1      29.722  -4.969  -4.683  0.00  0.00    +0.000 C 
BRANCH  24  25
ATOM     25  C   UNL     1      30.167  -5.303  -3.247  0.00  0.00    +0.000 C 
BRANCH  25  28
ATOM     26  C   UNL     1      31.089  -7.101  -1.816  0.00  0.00    +0.000 C 
ATOM     27  O   UNL     1      31.075  -6.357  -0.836  0.00  0.00    +0.000 OA
ATOM     28  N   UNL     1      30.658  -6.675  -3.061  0.00  0.00    +0.000 N 
ATOM     29  H   UNL     1      30.682  -7.314  -3.846  0.00  0.00    +0.000 HD
BRANCH  26  30
ATOM     30  C   UNL     1      31.577  -8.545  -1.745  0.00  0.00    +0.000 C 
BRANCH  30  31
ATOM     31  C   UNL     1      32.024  -8.890  -0.329  0.00  0.00    +0.000 C 
BRANCH  31  34
ATOM     32  C   UNL     1      32.932 -10.639   1.098  0.00  0.00    +0.000 C 
ATOM     33  O   UNL     1      32.900  -9.840   2.033  0.00  0.00    +0.000 OA
ATOM     34  N   UNL     1      32.523 -10.251  -0.161  0.00  0.00    +0.000 N 
ATOM     35  H   UNL     1      32.497 -10.935  -0.908  0.00  0.00    +0.000 HD
BRANCH  32  36
ATOM     36  C   UNL     1      33.425 -12.106   1.251  0.00  0.00    +0.000 C 
BRANCH  36  38
ATOM     37  C   UNL     1      34.370 -13.905   2.809  0.00  0.00    +0.000 C 
ATOM     38  C   UNL     1      33.871 -12.443   2.715  0.00  0.00    +0.000 C 
ATOM     39  C   UNL     1      32.682 -12.310   3.696  0.00  0.00    +0.000 C 
BRANCH  38  40
ATOM     40  C   UNL     1      35.044 -11.517   3.129  0.00  0.00    +0.000 C 
BRANCH  40  41
ATOM     41  O   UNL     1      35.492 -11.795   4.451  0.00  0.00    +0.000 OA
ATOM     42  H   UNL     1      34.768 -11.550   5.054  0.00  0.00    +0.000 HD
ENDBRANCH  40  41
ENDBRANCH  38  40
ENDBRANCH  36  38
BRANCH  36  43
ATOM     43  O   UNL     1      32.420 -13.013   0.787  0.00  0.00    +0.000 OA
ATOM     44  H   UNL     1      31.661 -12.945   1.394  0.00  0.00    +0.000 HD
ENDBRANCH  36  43
ENDBRANCH  32  36
ENDBRANCH  31  34
ENDBRANCH  30  31
ENDBRANCH  26  30
ENDBRANCH  25  28
ENDBRANCH  24  25
ENDBRANCH   1  24
TORSDOF 23
