REMARK  Name = Pantothenic acid
REMARK  11 active torsions:
REMARK  status: ('A' for Active; 'I' for Inactive)
REMARK    1  A    between atoms: C_1  and  C_2
REMARK    2  A    between atoms: C_2  and  C_3
REMARK    3  A    between atoms: C_2  and  C_4
REMARK    4  A    between atoms: C_2  and  C_6
REMARK    5  A    between atoms: C_4  and  O_5
REMARK    6  A    between atoms: C_6  and  O_7
REMARK    7  A    between atoms: C_6  and  C_8
REMARK    8  A    between atoms: N_10  and  C_11
REMARK    9  A    between atoms: C_11  and  C_12
REMARK   10  A    between atoms: C_12  and  C_13
REMARK   11  A    between atoms: C_13  and  O_14
REMARK                            x       y       z     vdW  Elec       q    Type
REMARK                         _______ _______ _______ _____ _____    ______ ____
ROOT
ATOM      1  C   UNL     1       4.685   1.091   0.978  0.00  0.00    +0.000 C 
ATOM      2  O   UNL     1       5.385   0.394   0.245  0.00  0.00    +0.000 OA
ATOM      3  N   UNL     1       5.281   1.960   1.861  0.00  0.00    +0.000 N 
ATOM      4  H   UNL     1       4.710   2.493   2.511  0.00  0.00    +0.000 HD
ENDROOT
BRANCH   1   5
ATOM      5  C   UNL     1       3.136   1.062   0.975  0.00  0.00    +0.000 C 
BRANCH   5   7
ATOM      6  C   UNL     1       1.018   0.069  -0.044  0.00  0.00    +0.000 C 
ATOM      7  C   UNL     1       2.564   0.047  -0.065  0.00  0.00    +0.000 C 
ATOM      8  C   UNL     1       3.002  -1.396   0.277  0.00  0.00    +0.000 C 
BRANCH   7   9
ATOM      9  C   UNL     1       3.025   0.450  -1.491  0.00  0.00    +0.000 C 
BRANCH   9  10
ATOM     10  O   UNL     1       2.518  -0.440  -2.479  0.00  0.00    +0.000 OA
ATOM     11  H   UNL     1       2.926  -1.308  -2.319  0.00  0.00    +0.000 HD
ENDBRANCH   9  10
ENDBRANCH   7   9
ENDBRANCH   5   7
BRANCH   5  12
ATOM     12  O   UNL     1       2.655   0.798   2.296  0.00  0.00    +0.000 OA
ATOM     13  H   UNL     1       2.910  -0.111   2.532  0.00  0.00    +0.000 HD
ENDBRANCH   5  12
ENDBRANCH   1   5
BRANCH   3  14
ATOM     14  C   UNL     1       6.727   1.972   1.898  0.00  0.00    +0.000 C 
BRANCH  14  15
ATOM     15  C   UNL     1       7.320   2.932   2.895  0.00  0.00    +0.000 C 
BRANCH  15  16
ATOM     16  C   UNL     1       8.829   2.962   2.929  0.00  0.00    +0.000 C 
ATOM     17  O   UNL     1       9.431   3.706   3.701  0.00  0.00    +0.000 OA
BRANCH  16  18
ATOM     18  O   UNL     1       9.506   2.154   2.094  0.00  0.00    +0.000 OA
ATOM     19  H   UNL     1       9.023   1.569   1.483  0.00  0.00    +0.000 HD
ENDBRANCH  16  18
ENDBRANCH  15  16
ENDBRANCH  14  15
ENDBRANCH   3  14
TORSDOF 9
