REMARK  Name = Panthenol
REMARK  11 active torsions:
REMARK  status: ('A' for Active; 'I' for Inactive)
REMARK    1  A    between atoms: C_1  and  C_2
REMARK    2  A    between atoms: C_2  and  C_3
REMARK    3  A    between atoms: C_2  and  C_4
REMARK    4  A    between atoms: C_2  and  C_6
REMARK    5  A    between atoms: C_4  and  O_5
REMARK    6  A    between atoms: C_6  and  O_7
REMARK    7  A    between atoms: C_6  and  C_8
REMARK    8  A    between atoms: N_10  and  C_11
REMARK    9  A    between atoms: C_11  and  C_12
REMARK   10  A    between atoms: C_12  and  C_13
REMARK   11  A    between atoms: C_13  and  O_14
REMARK                            x       y       z     vdW  Elec       q    Type
REMARK                         _______ _______ _______ _____ _____    ______ ____
ROOT
ATOM      1  C   UNL     1       3.170  -0.959   0.964  0.00  0.00    +0.000 C 
ENDROOT
BRANCH   1   2
ATOM      2  C   UNL     1       4.721  -0.959   0.991  0.00  0.00    +0.000 C 
ATOM      3  O   UNL     1       5.415  -0.223   0.285  0.00  0.00    +0.000 OA
ATOM      4  N   UNL     1       5.318  -1.832   1.865  0.00  0.00    +0.000 N 
ATOM      5  H   UNL     1       4.749  -2.489   2.390  0.00  0.00    +0.000 HD
BRANCH   4   6
ATOM      6  C   UNL     1       6.765  -1.885   1.885  0.00  0.00    +0.000 C 
BRANCH   6   7
ATOM      7  C   UNL     1       7.304  -2.897   2.871  0.00  0.00    +0.000 C 
BRANCH   7   8
ATOM      8  C   UNL     1       8.826  -2.892   2.867  0.00  0.00    +0.000 C 
BRANCH   8   9
ATOM      9  O   UNL     1       9.308  -3.858   3.790  0.00  0.00    +0.000 OA
ATOM     10  H   UNL     1       8.987  -3.608   4.673  0.00  0.00    +0.000 HD
ENDBRANCH   8   9
ENDBRANCH   7   8
ENDBRANCH   6   7
ENDBRANCH   4   6
ENDBRANCH   1   2
BRANCH   1  12
ATOM     11  C   UNL     1       1.048   0.054  -0.032  0.00  0.00    +0.000 C 
ATOM     12  C   UNL     1       2.594   0.076  -0.056  0.00  0.00    +0.000 C 
ATOM     13  C   UNL     1       3.030  -0.273  -1.499  0.00  0.00    +0.000 C 
BRANCH  12  14
ATOM     14  C   UNL     1       3.054   1.505   0.340  0.00  0.00    +0.000 C 
BRANCH  14  15
ATOM     15  O   UNL     1       2.544   2.487  -0.555  0.00  0.00    +0.000 OA
ATOM     16  H   UNL     1       2.959   2.326  -1.420  0.00  0.00    +0.000 HD
ENDBRANCH  14  15
ENDBRANCH  12  14
ENDBRANCH   1  12
BRANCH   1  17
ATOM     17  O   UNL     1       2.683  -2.280   0.708  0.00  0.00    +0.000 OA
ATOM     18  H   UNL     1       2.949  -2.524  -0.196  0.00  0.00    +0.000 HD
ENDBRANCH   1  17
TORSDOF 9
