REMARK  Name = Papaverine
REMARK  10 active torsions:
REMARK  status: ('A' for Active; 'I' for Inactive)
REMARK    1  A    between atoms: C_1  and  O_2
REMARK    2  A    between atoms: O_2  and  C_3
REMARK    3  A    between atoms: C_4  and  O_5
REMARK    4  A    between atoms: O_5  and  C_6
REMARK    5  A    between atoms: C_8  and  C_9
REMARK    6  A    between atoms: C_9  and  C_10
REMARK    7  A    between atoms: C_16  and  O_17
REMARK    8  A    between atoms: O_17  and  C_18
REMARK    9  A    between atoms: C_19  and  O_20
REMARK   10  A    between atoms: O_20  and  C_21
REMARK                            x       y       z     vdW  Elec       q    Type
REMARK                         _______ _______ _______ _____ _____    ______ ____
ROOT
ATOM      1  C   UNL     1       5.076  -5.555   4.791  0.00  0.00    +0.000 A 
ATOM      2  N   UNL     1       5.591  -4.925   5.816  0.00  0.00    +0.000 NA
ATOM      3  C   UNL     1       4.820  -5.018   6.821  0.00  0.00    +0.000 A 
ATOM      4  C   UNL     1       5.448  -5.892   7.578  0.00  0.00    +0.000 A 
ATOM      5  C   UNL     1       4.965  -7.060   7.269  0.00  0.00    +0.000 A 
ATOM      6  C   UNL     1       4.905  -7.911   8.646  0.00  0.00    +0.000 A 
ATOM      7  C   UNL     1       4.543  -9.224   8.950  0.00  0.00    +0.000 A 
ATOM      8  C   UNL     1       4.087  -9.752   7.775  0.00  0.00    +0.000 A 
ATOM      9  C   UNL     1       4.224  -8.790   6.337  0.00  0.00    +0.000 A 
ATOM     10  C   UNL     1       4.705  -7.157   5.831  0.00  0.00    +0.000 A 
ENDROOT
BRANCH   7  11
ATOM     11  O   UNL     1       4.667  -9.709  10.245  0.00  0.00    +0.000 OA
ATOM     12  C   UNL     1       4.451 -11.097  10.657  0.00  0.00    +0.000 C 
ENDBRANCH   7  11
BRANCH   8  13
ATOM     13  O   UNL     1       3.547 -10.990   8.118  0.00  0.00    +0.000 OA
ATOM     14  C   UNL     1       2.886 -12.065   7.474  0.00  0.00    +0.000 C 
ENDBRANCH   8  13
BRANCH   1  15
ATOM     15  C   UNL     1       5.410  -3.743   4.192  0.00  0.00    +0.000 C 
BRANCH  15  19
ATOM     16  C   UNL     1       3.168  -0.644   1.107  0.00  0.00    +0.000 A 
ATOM     17  C   UNL     1       4.356  -0.109   1.587  0.00  0.00    +0.000 A 
ATOM     18  C   UNL     1       5.193  -1.014   2.516  0.00  0.00    +0.000 A 
ATOM     19  C   UNL     1       4.755  -2.436   3.030  0.00  0.00    +0.000 A 
ATOM     20  C   UNL     1       3.500  -2.713   2.559  0.00  0.00    +0.000 A 
ATOM     21  C   UNL     1       2.767  -1.883   1.636  0.00  0.00    +0.000 A 
BRANCH  16  23
ATOM     22  C   UNL     1       1.096  -0.084   0.029  0.00  0.00    +0.000 C 
ATOM     23  O   UNL     1       2.520  -0.092   0.026  0.00  0.00    +0.000 OA
ENDBRANCH  16  23
BRANCH  17  24
ATOM     24  O   UNL     1       4.750   1.208   1.242  0.00  0.00    +0.000 OA
ATOM     25  C   UNL     1       3.833   2.063   0.458  0.00  0.00    +0.000 C 
ENDBRANCH  17  24
ENDBRANCH  15  19
ENDBRANCH   1  15
TORSDOF 6
