REMARK  Name = Paraldehyde
REMARK  3 active torsions:
REMARK  status: ('A' for Active; 'I' for Inactive)
REMARK    1  A    between atoms: C_1  and  C_2
REMARK    2  A    between atoms: C_4  and  C_5
REMARK    3  A    between atoms: C_7  and  C_8
REMARK                            x       y       z     vdW  Elec       q    Type
REMARK                         _______ _______ _______ _____ _____    ______ ____
ROOT
ATOM      1  C   UNL     1       0.922   0.115   0.036  0.00  0.00    +0.000 C 
ATOM      2  C   UNL     1       2.437   0.066  -0.173  0.00  0.00    +0.000 C 
ATOM      3  O   UNL     1       2.887  -1.242  -0.501  0.00  0.00    +0.000 OA
ATOM      4  C   UNL     1       2.523  -1.578  -1.828  0.00  0.00    +0.000 C 
ATOM      5  C   UNL     1       3.064  -2.959  -2.151  0.00  0.00    +0.000 C 
ATOM      6  O   UNL     1       3.046  -0.639  -2.753  0.00  0.00    +0.000 OA
ATOM      7  C   UNL     1       2.541   0.650  -2.437  0.00  0.00    +0.000 C 
ATOM      8  C   UNL     1       3.124   1.660  -3.410  0.00  0.00    +0.000 C 
ATOM      9  O   UNL     1       2.887   1.031  -1.116  0.00  0.00    +0.000 OA
ENDROOT
TORSDOF 0
