REMARK  Name = Paramethadione
REMARK  4 active torsions:
REMARK  status: ('A' for Active; 'I' for Inactive)
REMARK    1  A    between atoms: C_1  and  C_2
REMARK    2  A    between atoms: C_2  and  C_3
REMARK    3  A    between atoms: C_3  and  C_4
REMARK    4  A    between atoms: N_8  and  C_9
REMARK                            x       y       z     vdW  Elec       q    Type
REMARK                         _______ _______ _______ _____ _____    ______ ____
ROOT
ATOM      1  C   UNL     1       3.069  -1.009   1.009  0.00  0.00    +0.000 C 
ATOM      2  C   UNL     1       4.433  -0.504   1.469  0.00  0.00    +0.000 C 
ATOM      3  O   UNL     1       2.266  -1.122   2.192  0.00  0.00    +0.000 OA
ATOM      4  C   UNL     1       2.304  -2.428   2.597  0.00  0.00    +0.000 C 
ATOM      5  O   UNL     1       2.052  -2.779   3.741  0.00  0.00    +0.000 OA
ATOM      6  N   UNL     1       2.664  -3.220   1.568  0.00  0.00    +0.000 N 
ATOM      7  C   UNL     1       2.597  -4.665   1.556  0.00  0.00    +0.000 C 
ATOM      8  C   UNL     1       3.116  -2.454   0.542  0.00  0.00    +0.000 C 
ATOM      9  O   UNL     1       3.525  -2.851  -0.538  0.00  0.00    +0.000 OA
ENDROOT
BRANCH   1  11
ATOM     10  C   UNL     1       0.988  -0.031  -0.107  0.00  0.00    +0.000 C 
ATOM     11  C   UNL     1       2.503  -0.063  -0.058  0.00  0.00    +0.000 C 
ENDBRANCH   1  11
TORSDOF 1
