REMARK  Name = Paramethasone acetate
REMARK  10 active torsions:
REMARK  status: ('A' for Active; 'I' for Inactive)
REMARK    1  A    between atoms: C_4  and  C_5
REMARK    2  A    between atoms: C_6  and  O_7
REMARK    3  A    between atoms: C_6  and  C_8
REMARK    4  A    between atoms: C_8  and  C_10
REMARK    5  A    between atoms: C_10  and  O_11
REMARK    6  A    between atoms: O_11  and  C_12
REMARK    7  A    between atoms: C_12  and  C_13
REMARK    8  A    between atoms: C_15  and  C_16
REMARK    9  A    between atoms: C_18  and  O_19
REMARK   10  A    between atoms: C_33  and  C_34
REMARK                            x       y       z     vdW  Elec       q    Type
REMARK                         _______ _______ _______ _____ _____    ______ ____
ROOT
ATOM      1  C   UNL     1       1.837   0.097  -0.230  0.00  0.00    +0.000 C 
ATOM      2  C   UNL     1       2.404   0.182  -1.532  0.00  0.00    +0.000 C 
ATOM      3  C   UNL     1       3.503  -0.209  -0.544  0.00  0.00    +0.000 C 
ATOM      4  C   UNL     1       5.204   0.303  -1.106  0.00  0.00    +0.000 C 
ATOM      5  C   UNL     1       2.710  -0.856   1.297  0.00  0.00    +0.000 C 
ATOM      6  C   UNL     1       2.689  -1.533   0.142  0.00  0.00    +0.000 C 
ATOM      7  C   UNL     1       1.949  -2.727  -0.297  0.00  0.00    +0.000 C 
ATOM      8  C   UNL     1       4.472  -1.523   0.698  0.00  0.00    +0.000 C 
ATOM      9  C   UNL     1       4.798   0.053   1.544  0.00  0.00    +0.000 C 
ATOM     10  C   UNL     1       4.098   1.522   0.923  0.00  0.00    +0.000 C 
ATOM     11  C   UNL     1       2.464   1.474   0.726  0.00  0.00    +0.000 C 
ATOM     12  C   UNL     1       2.016   2.729  -0.004  0.00  0.00    +0.000 C 
ATOM     13  C   UNL     1       2.569   3.985   0.630  0.00  0.00    +0.000 C 
ATOM     14  F   UNL     1       2.142   5.034  -0.120  0.00  0.00    +0.000 F 
ATOM     15  C   UNL     1       4.057   4.045   0.848  0.00  0.00    +0.000 C 
ATOM     16  C   UNL     1       4.829   5.113   0.570  0.00  0.00    +0.000 C 
ATOM     17  C   UNL     1       6.234   4.970   1.038  0.00  0.00    +0.000 C 
ATOM     18  O   UNL     1       6.757   5.480   2.019  0.00  0.00    +0.000 OA
ATOM     19  C   UNL     1       6.964   3.915   0.258  0.00  0.00    +0.000 C 
ATOM     20  C   UNL     1       6.316   2.947   0.967  0.00  0.00    +0.000 C 
ATOM     21  C   UNL     1       4.745   2.832   1.469  0.00  0.00    +0.000 C 
ATOM     22  C   UNL     1       4.326   2.803   2.942  0.00  0.00    +0.000 C 
ENDROOT
BRANCH   5  23
ATOM     23  O   UNL     1       1.211  -0.762   1.650  0.00  0.00    +0.000 OA
ATOM     24  H   UNL     1       0.965  -0.994   2.557  0.00  0.00    +0.000 HD
ENDBRANCH   5  23
BRANCH   5  25
ATOM     25  C   UNL     1       2.850  -2.333   2.472  0.00  0.00    +0.000 C 
ATOM     26  O   UNL     1       3.320  -3.423   2.101  0.00  0.00    +0.000 OA
BRANCH  25  27
ATOM     27  C   UNL     1       2.276  -2.434   4.036  0.00  0.00    +0.000 C 
BRANCH  27  28
ATOM     28  O   UNL     1       2.756  -3.735   4.663  0.00  0.00    +0.000 OA
BRANCH  28  29
ATOM     29  C   UNL     1       2.581  -4.260   5.910  0.00  0.00    +0.000 C 
ATOM     30  C   UNL     1       1.754  -3.509   6.910  0.00  0.00    +0.000 C 
ATOM     31  O   UNL     1       3.089  -5.333   6.242  0.00  0.00    +0.000 OA
ENDBRANCH  28  29
ENDBRANCH  27  28
ENDBRANCH  25  27
ENDBRANCH   5  25
BRANCH   9  32
ATOM     32  O   UNL     1       4.336  -0.125   2.905  0.00  0.00    +0.000 OA
ATOM     33  H   UNL     1       3.459   0.287   3.013  0.00  0.00    +0.000 HD
ENDBRANCH   9  32
TORSDOF 6
