REMARK  Name = Parachlorophenol
REMARK  1 active torsions:
REMARK  status: ('A' for Active; 'I' for Inactive)
REMARK    1  A    between atoms: O_1  and  C_2
REMARK                            x       y       z     vdW  Elec       q    Type
REMARK                         _______ _______ _______ _____ _____    ______ ____
ROOT
ATOM      1  C   UNL     1      -1.930   0.002  -0.002  0.00  0.00    +0.000 A 
ATOM      2  C   UNL     1      -1.252  -1.215  -0.003  0.00  0.00    +0.000 A 
ATOM      3  C   UNL     1       0.146  -1.218  -0.004  0.00  0.00    +0.000 A 
ATOM      4  C   UNL     1       0.845  -0.010  -0.003  0.00  0.00    +0.000 A 
ATOM      5 CL   UNL     1       2.566  -0.018  -0.001  0.00  0.00    +0.000 Cl
ATOM      6  C   UNL     1       0.159   1.204  -0.004  0.00  0.00    +0.000 A 
ATOM      7  C   UNL     1      -1.236   1.207  -0.004  0.00  0.00    +0.000 A 
ENDROOT
BRANCH   1   8
ATOM      8  O   UNL     1      -3.292   0.061   0.001  0.00  0.00    +0.000 OA
ATOM      9  H   UNL     1      -3.650  -0.841   0.010  0.00  0.00    +0.000 HD
ENDBRANCH   1   8
TORSDOF 1
