REMARK  Name = Parecoxib
REMARK  7 active torsions:
REMARK  status: ('A' for Active; 'I' for Inactive)
REMARK    1  A    between atoms: C_1  and  C_2
REMARK    2  A    between atoms: C_2  and  C_3
REMARK    3  A    between atoms: N_5  and  S_6
REMARK    4  A    between atoms: S_6  and  C_9
REMARK    5  A    between atoms: C_12  and  C_15
REMARK    6  A    between atoms: C_16  and  C_17
REMARK    7  A    between atoms: C_20  and  C_21
REMARK                            x       y       z     vdW  Elec       q    Type
REMARK                         _______ _______ _______ _____ _____    ______ ____
ROOT
ATOM      1  C   UNL     1       6.871  -2.595   2.092  0.00  0.00    +0.000 A 
ATOM      2  C   UNL     1       7.584  -3.785   1.887  0.00  0.00    +0.000 A 
ATOM      3  C   UNL     1       8.969  -3.815   2.090  0.00  0.00    +0.000 A 
ATOM      4  C   UNL     1       9.668  -2.645   2.414  0.00  0.00    +0.000 A 
ATOM      5  C   UNL     1       8.951  -1.456   2.610  0.00  0.00    +0.000 A 
ATOM      6  C   UNL     1       7.553  -1.434   2.468  0.00  0.00    +0.000 A 
ENDROOT
BRANCH   4   7
ATOM      7  C   UNL     1      11.120  -2.662   2.390  0.00  0.00    +0.000 A 
ATOM      8  C   UNL     1      11.978  -2.296   3.400  0.00  0.00    +0.000 A 
ATOM      9  C   UNL     1      11.815  -1.815   4.781  0.00  0.00    +0.000 C 
ATOM     10  O   UNL     1      13.263  -2.449   2.973  0.00  0.00    +0.000 OA
ATOM     11  N   UNL     1      13.273  -2.927   1.675  0.00  0.00    +0.000 NA
ATOM     12  C   UNL     1      11.986  -3.042   1.320  0.00  0.00    +0.000 A 
BRANCH  12  13
ATOM     13  C   UNL     1      11.582  -3.430  -0.022  0.00  0.00    +0.000 A 
ATOM     14  C   UNL     1      11.902  -4.685  -0.547  0.00  0.00    +0.000 A 
ATOM     15  C   UNL     1      11.493  -5.018  -1.840  0.00  0.00    +0.000 A 
ATOM     16  C   UNL     1      10.705  -4.132  -2.578  0.00  0.00    +0.000 A 
ATOM     17  C   UNL     1      10.367  -2.888  -2.049  0.00  0.00    +0.000 A 
ATOM     18  C   UNL     1      10.816  -2.534  -0.781  0.00  0.00    +0.000 A 
ENDBRANCH  12  13
ENDBRANCH   4   7
BRANCH   1  19
ATOM     19  S   UNL     1       5.078  -2.648   2.139  0.00  0.00    +0.000 S 
ATOM     20  O   UNL     1       4.736  -2.281   3.500  0.00  0.00    +0.000 OA
ATOM     21  O   UNL     1       4.695  -3.912   1.556  0.00  0.00    +0.000 OA
BRANCH  19  24
ATOM     22  C   UNL     1       3.121  -1.236   0.974  0.00  0.00    +0.000 C 
ATOM     23  O   UNL     1       2.311  -1.932   1.574  0.00  0.00    +0.000 OA
ATOM     24  N   UNL     1       4.521  -1.428   1.116  0.00  0.00    +0.000 N 
ATOM     25  H   UNL     1       5.199  -0.859   0.627  0.00  0.00    +0.000 HD
BRANCH  22  27
ATOM     26  C   UNL     1       1.130  -0.057  -0.010  0.00  0.00    +0.000 C 
ATOM     27  C   UNL     1       2.659  -0.122   0.043  0.00  0.00    +0.000 C 
ENDBRANCH  22  27
ENDBRANCH  19  24
ENDBRANCH   1  19
TORSDOF 5
