REMARK  Name = Pargyline
REMARK  5 active torsions:
REMARK  status: ('A' for Active; 'I' for Inactive)
REMARK    1  A    between atoms: C_1  and  N_2
REMARK    2  A    between atoms: N_2  and  C_3
REMARK    3  A    between atoms: N_2  and  C_6
REMARK    4  A    between atoms: C_3  and  C_4
REMARK    5  A    between atoms: C_6  and  C_7
REMARK                            x       y       z     vdW  Elec       q    Type
REMARK                         _______ _______ _______ _____ _____    ______ ____
ROOT
ATOM      1  C   UNL     1       2.955  -0.269  -1.337  0.00  0.00    +0.000 C 
ENDROOT
BRANCH   1   2
ATOM      2  C   UNL     1       4.474  -0.213  -1.400  0.00  0.00    +0.000 A 
ATOM      3  C   UNL     1       5.136  -0.643  -2.549  0.00  0.00    +0.000 A 
ATOM      4  C   UNL     1       6.523  -0.833  -2.522  0.00  0.00    +0.000 A 
ATOM      5  C   UNL     1       7.243  -0.622  -1.344  0.00  0.00    +0.000 A 
ATOM      6  C   UNL     1       6.606  -0.138  -0.219  0.00  0.00    +0.000 A 
ATOM      7  C   UNL     1       5.252   0.162  -0.290  0.00  0.00    +0.000 A 
ENDBRANCH   1   2
BRANCH   1   9
ATOM      8  C   UNL     1       0.928   0.055  -0.073  0.00  0.00    +0.000 C 
ATOM      9  N   UNL     1       2.401   0.057  -0.012  0.00  0.00    +0.000 NA
BRANCH   9  10
ATOM     10  C   UNL     1       2.871  -0.909   0.989  0.00  0.00    +0.000 C 
BRANCH  10  11
ATOM     11  C   UNL     1       2.364  -0.493   2.360  0.00  0.00    +0.000 C 
ATOM     12  C   UNL     1       1.929  -0.136   3.537  0.00  0.00    +0.000 C 
ENDBRANCH  10  11
ENDBRANCH   9  10
ENDBRANCH   1   9
TORSDOF 4
