REMARK  Name = Paricalcitol
REMARK  13 active torsions:
REMARK  status: ('A' for Active; 'I' for Inactive)
REMARK    1  A    between atoms: C_2  and  C_23
REMARK    2  A    between atoms: C_11  and  C_12
REMARK    3  A    between atoms: C_13  and  C_14
REMARK    4  A    between atoms: C_17  and  O_18
REMARK    5  A    between atoms: C_20  and  O_21
REMARK    6  A    between atoms: C_23  and  C_24
REMARK    7  A    between atoms: C_23  and  C_25
REMARK    8  A    between atoms: C_26  and  C_27
REMARK    9  A    between atoms: C_27  and  C_28
REMARK   10  A    between atoms: C_27  and  C_29
REMARK   11  A    between atoms: C_29  and  C_30
REMARK   12  A    between atoms: C_29  and  C_31
REMARK   13  A    between atoms: C_29  and  O_32
REMARK                            x       y       z     vdW  Elec       q    Type
REMARK                         _______ _______ _______ _____ _____    ______ ____
ROOT
ATOM      1  C   UNL     1      -0.381   6.195   1.731  0.00  0.00    +0.000 C 
ATOM      2  C   UNL     1      -1.638   6.163   0.821  0.00  0.00    +0.000 C 
ATOM      3  C   UNL     1      -2.702   7.042   1.465  0.00  0.00    +0.000 C 
ATOM      4  C   UNL     1      -1.920   7.847   2.486  0.00  0.00    +0.000 C 
ATOM      5  C   UNL     1      -2.610   8.557   3.612  0.00  0.00    +0.000 C 
ATOM      6  C   UNL     1      -1.589   9.265   4.490  0.00  0.00    +0.000 C 
ATOM      7  C   UNL     1      -0.439   8.414   4.980  0.00  0.00    +0.000 C 
ATOM      8  C   UNL     1       0.192   7.629   3.835  0.00  0.00    +0.000 C 
ATOM      9  C   UNL     1      -0.883   6.843   3.048  0.00  0.00    +0.000 C 
ATOM     10  C   UNL     1      -1.539   5.791   3.980  0.00  0.00    +0.000 C 
ATOM     11  C   UNL     1      -3.944   8.602   3.786  0.00  0.00    +0.000 C 
ENDROOT
BRANCH  11  12
ATOM     12  C   UNL     1      -4.631   9.371   4.802  0.00  0.00    +0.000 C 
ATOM     13  C   UNL     1      -4.388  10.664   5.098  0.00  0.00    +0.000 C 
ATOM     14  C   UNL     1      -5.150  11.385   6.176  0.00  0.00    +0.000 C 
ATOM     15  C   UNL     1      -5.708  12.700   5.617  0.00  0.00    +0.000 C 
ATOM     16  C   UNL     1      -4.611  13.589   5.016  0.00  0.00    +0.000 C 
ATOM     17  C   UNL     1      -3.851  12.867   3.920  0.00  0.00    +0.000 C 
ATOM     18  C   UNL     1      -3.341  11.533   4.416  0.00  0.00    +0.000 C 
BRANCH  15  19
ATOM     19  O   UNL     1      -6.399  13.412   6.635  0.00  0.00    +0.000 OA
ATOM     20  H   UNL     1      -5.768  13.612   7.346  0.00  0.00    +0.000 HD
ENDBRANCH  15  19
BRANCH  17  21
ATOM     21  O   UNL     1      -4.675  12.670   2.773  0.00  0.00    +0.000 OA
ATOM     22  H   UNL     1      -5.313  11.964   2.982  0.00  0.00    +0.000 HD
ENDBRANCH  17  21
ENDBRANCH  11  12
BRANCH   1  23
ATOM     23  C   UNL     1       0.326   4.826   1.896  0.00  0.00    +0.000 C 
ATOM     24  C   UNL     1       0.029   3.835   0.764  0.00  0.00    +0.000 C 
BRANCH  23  25
ATOM     25  C   UNL     1       1.801   5.033   2.092  0.00  0.00    +0.000 C 
ATOM     26  C   UNL     1       2.672   4.963   1.067  0.00  0.00    +0.000 C 
BRANCH  26  27
ATOM     27  C   UNL     1       4.155   5.145   1.178  0.00  0.00    +0.000 C 
ATOM     28  C   UNL     1       4.445   6.525   1.784  0.00  0.00    +0.000 C 
BRANCH  27  29
ATOM     29  C   UNL     1       4.844   4.944  -0.210  0.00  0.00    +0.000 C 
ATOM     30  C   UNL     1       4.364   5.956  -1.262  0.00  0.00    +0.000 C 
ATOM     31  C   UNL     1       6.363   5.035  -0.057  0.00  0.00    +0.000 C 
BRANCH  29  32
ATOM     32  O   UNL     1       4.592   3.618  -0.706  0.00  0.00    +0.000 OA
ATOM     33  H   UNL     1       3.635   3.495  -0.816  0.00  0.00    +0.000 HD
ENDBRANCH  29  32
ENDBRANCH  27  29
ENDBRANCH  26  27
ENDBRANCH  23  25
ENDBRANCH   1  23
TORSDOF 8
