REMARK  Name = Paromomycin
REMARK  22 active torsions:
REMARK  status: ('A' for Active; 'I' for Inactive)
REMARK    1  A    between atoms: N_1  and  C_2
REMARK    2  A    between atoms: C_2  and  C_3
REMARK    3  A    between atoms: C_5  and  O_6
REMARK    4  A    between atoms: O_6  and  C_7
REMARK    5  A    between atoms: C_8  and  C_9
REMARK    6  A    between atoms: C_9  and  O_10
REMARK    7  A    between atoms: C_12  and  O_13
REMARK    8  A    between atoms: O_13  and  C_14
REMARK    9  A    between atoms: C_15  and  O_16
REMARK   10  A    between atoms: C_17  and  N_18
REMARK   11  A    between atoms: C_20  and  N_21
REMARK   12  A    between atoms: C_22  and  O_23
REMARK   13  A    between atoms: O_23  and  C_24
REMARK   14  A    between atoms: C_26  and  C_27
REMARK   15  A    between atoms: C_27  and  O_28
REMARK   16  A    between atoms: C_29  and  O_30
REMARK   17  A    between atoms: C_31  and  O_32
REMARK   18  A    between atoms: C_33  and  N_34
REMARK   19  A    between atoms: C_35  and  O_36
REMARK   20  A    between atoms: C_37  and  N_38
REMARK   21  A    between atoms: C_39  and  O_40
REMARK   22  A    between atoms: C_41  and  O_42
REMARK                            x       y       z     vdW  Elec       q    Type
REMARK                         _______ _______ _______ _____ _____    ______ ____
ROOT
ATOM      1  C   UNL     1       9.187  -0.713  10.327  0.00  0.00    +0.000 C 
ATOM      2  C   UNL     1       9.228   0.347   9.299  0.00  0.00    +0.000 C 
ATOM      3  C   UNL     1       8.832   1.774   9.647  0.00  0.00    +0.000 C 
ATOM      4  C   UNL     1       7.469   1.794  10.307  0.00  0.00    +0.000 C 
ATOM      5  C   UNL     1       7.336   0.691  11.356  0.00  0.00    +0.000 C 
ATOM      6  C   UNL     1       7.699  -0.726  10.814  0.00  0.00    +0.000 C 
ENDROOT
BRANCH   3   7
ATOM      7  N   UNL     1       9.969   2.425  10.301  0.00  0.00    +0.000 NA
ATOM      8  H   UNL     1      10.456   1.829  10.960  0.00  0.00    +0.000 HD
ATOM      9  H   UNL     1       9.696   3.304  10.709  0.00  0.00    +0.000 HD
ENDBRANCH   3   7
BRANCH   5  10
ATOM     10  N   UNL     1       8.296   1.081  12.411  0.00  0.00    +0.000 NA
ATOM     11  H   UNL     1       9.237   0.998  12.000  0.00  0.00    +0.000 HD
ATOM     12  H   UNL     1       8.339   0.390  13.153  0.00  0.00    +0.000 HD
ENDBRANCH   5  10
BRANCH   2  13
ATOM     13  O   UNL     1       8.956  -0.404   8.241  0.00  0.00    +0.000 OA
ATOM     14  H   UNL     1       8.077  -0.080   7.977  0.00  0.00    +0.000 HD
ENDBRANCH   2  13
BRANCH   6  15
ATOM     15  O   UNL     1       6.759  -1.398   9.852  0.00  0.00    +0.000 OA
BRANCH  15  16
ATOM     16  C   UNL     1       6.298  -0.833   8.576  0.00  0.00    +0.000 C 
ATOM     17  O   UNL     1       7.190  -1.008   7.441  0.00  0.00    +0.000 OA
ATOM     18  C   UNL     1       7.138  -0.210   6.195  0.00  0.00    +0.000 C 
ATOM     19  C   UNL     1       5.934  -0.766   5.546  0.00  0.00    +0.000 C 
ATOM     20  C   UNL     1       4.787  -0.694   6.614  0.00  0.00    +0.000 C 
ATOM     21  C   UNL     1       5.038  -1.472   7.979  0.00  0.00    +0.000 C 
BRANCH  21  22
ATOM     22  N   UNL     1       5.270  -2.929   7.838  0.00  0.00    +0.000 NA
ATOM     23  H   UNL     1       6.276  -3.064   7.690  0.00  0.00    +0.000 HD
ATOM     24  H   UNL     1       4.817  -3.283   6.999  0.00  0.00    +0.000 HD
ENDBRANCH  21  22
BRANCH  20  25
ATOM     25  O   UNL     1       4.471   0.682   6.932  0.00  0.00    +0.000 OA
ATOM     26  H   UNL     1       5.153   1.093   7.500  0.00  0.00    +0.000 HD
ENDBRANCH  20  25
BRANCH  19  27
ATOM     27  O   UNL     1       6.294  -2.115   5.209  0.00  0.00    +0.000 OA
ATOM     28  H   UNL     1       6.960  -2.394   5.879  0.00  0.00    +0.000 HD
ENDBRANCH  19  27
BRANCH  18  29
ATOM     29  C   UNL     1       7.188   1.325   6.168  0.00  0.00    +0.000 C 
BRANCH  29  30
ATOM     30  O   UNL     1       7.763   1.727   7.353  0.00  0.00    +0.000 OA
ATOM     31  H   UNL     1       8.731   1.593   7.206  0.00  0.00    +0.000 HD
ENDBRANCH  29  30
ENDBRANCH  18  29
ENDBRANCH  15  16
ENDBRANCH   6  15
BRANCH   1  32
ATOM     32  O   UNL     1      10.340  -0.309  11.053  0.00  0.00    +0.000 OA
BRANCH  32  36
ATOM     33  C   UNL     1      11.371  -2.038   8.503  0.00  0.00    +0.000 C 
ATOM     34  C   UNL     1      11.791  -0.765   7.789  0.00  0.00    +0.000 C 
ATOM     35  O   UNL     1      11.878   0.256   8.884  0.00  0.00    +0.000 OA
ATOM     36  C   UNL     1      11.599  -0.342  10.225  0.00  0.00    +0.000 C 
ATOM     37  C   UNL     1      11.923  -1.734   9.916  0.00  0.00    +0.000 C 
BRANCH  37  38
ATOM     38  O   UNL     1      13.338  -1.727  10.078  0.00  0.00    +0.000 OA
ATOM     39  H   UNL     1      13.726  -1.528   9.213  0.00  0.00    +0.000 HD
ENDBRANCH  37  38
BRANCH  34  40
ATOM     40  C   UNL     1      10.929  -0.382   6.541  0.00  0.00    +0.000 C 
BRANCH  40  41
ATOM     41  O   UNL     1      11.089   0.965   6.114  0.00  0.00    +0.000 OA
ATOM     42  H   UNL     1      12.041   1.142   6.091  0.00  0.00    +0.000 HD
ENDBRANCH  40  41
ENDBRANCH  34  40
BRANCH  33  43
ATOM     43  O   UNL     1      11.605  -3.321   7.946  0.00  0.00    +0.000 OA
BRANCH  43  46
ATOM     44  C   UNL     1      12.656  -4.695  10.489  0.00  0.00    +0.000 C 
ATOM     45  O   UNL     1      13.317  -3.891   9.499  0.00  0.00    +0.000 OA
ATOM     46  C   UNL     1      12.882  -3.883   8.150  0.00  0.00    +0.000 C 
ATOM     47  C   UNL     1      12.947  -5.322   7.640  0.00  0.00    +0.000 C 
ATOM     48  C   UNL     1      12.303  -6.287   8.666  0.00  0.00    +0.000 C 
ATOM     49  C   UNL     1      12.899  -6.117  10.073  0.00  0.00    +0.000 C 
BRANCH  47  50
ATOM     50  N   UNL     1      12.333  -5.527   6.312  0.00  0.00    +0.000 NA
ATOM     51  H   UNL     1      11.337  -5.307   6.409  0.00  0.00    +0.000 HD
ATOM     52  H   UNL     1      12.343  -6.539   6.152  0.00  0.00    +0.000 HD
ENDBRANCH  47  50
BRANCH  49  53
ATOM     53  O   UNL     1      12.332  -7.020  11.014  0.00  0.00    +0.000 OA
ATOM     54  H   UNL     1      11.370  -6.804  11.033  0.00  0.00    +0.000 HD
ENDBRANCH  49  53
BRANCH  48  55
ATOM     55  O   UNL     1      12.512  -7.625   8.207  0.00  0.00    +0.000 OA
ATOM     56  H   UNL     1      13.459  -7.807   8.339  0.00  0.00    +0.000 HD
ENDBRANCH  48  55
BRANCH  44  57
ATOM     57  C   UNL     1      11.146  -4.399  10.786  0.00  0.00    +0.000 C 
BRANCH  57  58
ATOM     58  N   UNL     1      10.215  -5.405  11.291  0.00  0.00    +0.000 NA
ATOM     59  H   UNL     1       9.283  -4.971  11.229  0.00  0.00    +0.000 HD
ATOM     60  H   UNL     1      10.370  -5.481  12.300  0.00  0.00    +0.000 HD
ENDBRANCH  57  58
ENDBRANCH  44  57
ENDBRANCH  43  46
ENDBRANCH  33  43
ENDBRANCH  32  36
ENDBRANCH   1  32
TORSDOF 22
