REMARK  Name = Paroxetine
REMARK  4 active torsions:
REMARK  status: ('A' for Active; 'I' for Inactive)
REMARK    1  A    between atoms: C_5  and  C_8
REMARK    2  A    between atoms: C_13  and  C_14
REMARK    3  A    between atoms: C_14  and  O_15
REMARK    4  A    between atoms: O_15  and  C_16
REMARK                            x       y       z     vdW  Elec       q    Type
REMARK                         _______ _______ _______ _____ _____    ______ ____
ROOT
ATOM      1  C   UNL     1      -3.410   0.082  -0.012  0.00  0.00    +0.000 C 
ATOM      2  C   UNL     1      -3.941   0.775  -1.276  0.00  0.00    +0.000 C 
ATOM      3  C   UNL     1      -3.710   2.287  -1.254  0.00  0.00    +0.000 C 
ATOM      4  N   UNL     1      -4.115   2.949  -0.007  0.00  0.00    +0.000 NA
ATOM      5  C   UNL     1      -3.697   2.275   1.241  0.00  0.00    +0.000 C 
ATOM      6  C   UNL     1      -4.008   0.766   1.248  0.00  0.00    +0.000 C 
ATOM      7  H   UNL     1      -5.142   2.911   0.015  0.00  0.00    +0.000 HD
ENDROOT
BRANCH   1  12
ATOM      8  F   UNL     1       2.273  -0.162  -0.002  0.00  0.00    +0.000 F 
ATOM      9  C   UNL     1       0.933  -0.108   0.001  0.00  0.00    +0.000 A 
ATOM     10  C   UNL     1       0.185  -1.281   0.004  0.00  0.00    +0.000 A 
ATOM     11  C   UNL     1      -1.219  -1.227   0.003  0.00  0.00    +0.000 A 
ATOM     12  C   UNL     1      -1.876   0.009   0.005  0.00  0.00    +0.000 A 
ATOM     13  C   UNL     1      -1.069   1.163   0.002  0.00  0.00    +0.000 A 
ATOM     14  C   UNL     1       0.318   1.118  -0.000  0.00  0.00    +0.000 A 
ENDBRANCH   1  12
BRANCH   6  15
ATOM     15  C   UNL     1      -5.544   0.543   1.357  0.00  0.00    +0.000 C 
BRANCH  15  16
ATOM     16  O   UNL     1      -6.204   1.741   0.929  0.00  0.00    +0.000 OA
BRANCH  16  17
ATOM     17  C   UNL     1      -7.554   1.762   0.976  0.00  0.00    +0.000 A 
ATOM     18  C   UNL     1      -8.272   1.316   2.076  0.00  0.00    +0.000 A 
ATOM     19  C   UNL     1      -9.638   1.339   1.965  0.00  0.00    +0.000 A 
ATOM     20  C   UNL     1     -10.276   1.817   0.841  0.00  0.00    +0.000 A 
ATOM     21  O   UNL     1     -11.626   1.696   0.931  0.00  0.00    +0.000 OA
ATOM     22  C   UNL     1     -11.750   1.016   2.198  0.00  0.00    +0.000 C 
ATOM     23  O   UNL     1     -10.504   0.887   2.908  0.00  0.00    +0.000 OA
ATOM     24  C   UNL     1      -9.581   2.346  -0.224  0.00  0.00    +0.000 A 
ATOM     25  C   UNL     1      -8.191   2.331  -0.142  0.00  0.00    +0.000 A 
ENDBRANCH  16  17
ENDBRANCH  15  16
ENDBRANCH   6  15
TORSDOF 4
