REMARK  Name = Parthenolide
REMARK  2 active torsions:
REMARK  status: ('A' for Active; 'I' for Inactive)
REMARK    1  A    between atoms: C_1  and  C_2
REMARK    2  A    between atoms: C_6  and  C_7
REMARK                            x       y       z     vdW  Elec       q    Type
REMARK                         _______ _______ _______ _____ _____    ______ ____
ROOT
ATOM      1  C   UNL     1       0.892  -0.167   0.067  0.00  0.00    +0.000 C 
ATOM      2  C   UNL     1       2.399  -0.078   0.145  0.00  0.00    +0.000 C 
ATOM      3  C   UNL     1       3.088   0.751   0.925  0.00  0.00    +0.000 C 
ATOM      4  C   UNL     1       2.471   1.811   1.734  0.00  0.00    +0.000 C 
ATOM      5  C   UNL     1       3.243   3.072   1.410  0.00  0.00    +0.000 C 
ATOM      6  C   UNL     1       2.442   3.888   0.426  0.00  0.00    +0.000 C 
ATOM      7  C   UNL     1       1.409   4.709   1.226  0.00  0.00    +0.000 C 
ATOM      8  O   UNL     1       3.255   4.621  -0.463  0.00  0.00    +0.000 OA
ATOM      9  C   UNL     1       2.461   3.705  -1.275  0.00  0.00    +0.000 C 
ATOM     10  C   UNL     1       3.389   2.887  -2.285  0.00  0.00    +0.000 C 
ATOM     11  O   UNL     1       3.113   3.440  -3.661  0.00  0.00    +0.000 OA
ATOM     12  C   UNL     1       3.604   2.495  -4.491  0.00  0.00    +0.000 C 
ATOM     13  O   UNL     1       4.762   2.459  -4.959  0.00  0.00    +0.000 OA
ATOM     14  C   UNL     1       2.869   1.354  -3.975  0.00  0.00    +0.000 C 
ATOM     15  C   UNL     1       1.598   1.081  -4.334  0.00  0.00    +0.000 C 
ATOM     16  C   UNL     1       3.465   1.202  -2.595  0.00  0.00    +0.000 C 
ATOM     17  C   UNL     1       2.929  -0.231  -2.160  0.00  0.00    +0.000 C 
ATOM     18  C   UNL     1       3.216  -0.860  -0.816  0.00  0.00    +0.000 C 
ENDROOT
TORSDOF 0
