REMARK  Name = Patent Blue
REMARK  16 active torsions:
REMARK  status: ('A' for Active; 'I' for Inactive)
REMARK    1  A    between atoms: C_1  and  C_2
REMARK    2  A    between atoms: C_2  and  N_3
REMARK    3  A    between atoms: N_3  and  C_4
REMARK    4  A    between atoms: N_3  and  C_6
REMARK    5  A    between atoms: C_4  and  C_5
REMARK    6  A    between atoms: C_9  and  C_12
REMARK    7  A    between atoms: C_12  and  C_24
REMARK    8  A    between atoms: N_19  and  C_20
REMARK    9  A    between atoms: N_19  and  C_22
REMARK   10  A    between atoms: C_20  and  C_21
REMARK   11  A    between atoms: C_22  and  C_23
REMARK   12  A    between atoms: C_25  and  S_35
REMARK   13  A    between atoms: C_27  and  S_31
REMARK   14  A    between atoms: C_28  and  O_29
REMARK   15  A    between atoms: S_31  and  O_32
REMARK   16  A    between atoms: S_35  and  O_36
REMARK                            x       y       z     vdW  Elec       q    Type
REMARK                         _______ _______ _______ _____ _____    ______ ____
ROOT
ATOM      1  C   UNL     1       8.574   2.096   1.508  0.00  0.00    +0.000 C 
ATOM      2  C   UNL     1       9.198   2.348   2.701  0.00  0.00    +0.000 C 
ATOM      3  C   UNL     1       8.443   2.510   3.893  0.00  0.00    +0.000 C 
ATOM      4  C   UNL     1       8.893   2.165   5.079  0.00  0.00    +0.000 C 
ATOM      5  C   UNL     1      10.295   1.787   5.319  0.00  0.00    +0.000 C 
ATOM      6  C   UNL     1      11.183   2.194   4.151  0.00  0.00    +0.000 C 
ATOM      7  C   UNL     1      10.645   2.487   2.946  0.00  0.00    +0.000 C 
ATOM      8  N   UNL     1      10.719   1.278   6.445  0.00  0.00    +0.000 N 
ENDROOT
BRANCH   1  12
ATOM      9  C   UNL     1       4.258   1.215   0.967  0.00  0.00    +0.000 A 
ATOM     10  C   UNL     1       4.799   1.379   2.216  0.00  0.00    +0.000 A 
ATOM     11  C   UNL     1       6.124   1.748   2.370  0.00  0.00    +0.000 A 
ATOM     12  C   UNL     1       7.065   1.840   1.333  0.00  0.00    +0.000 A 
ATOM     13  C   UNL     1       6.522   1.596   0.067  0.00  0.00    +0.000 A 
ATOM     14  C   UNL     1       5.152   1.303  -0.108  0.00  0.00    +0.000 A 
BRANCH   9  15
ATOM     15  N   UNL     1       2.881   1.021   0.838  0.00  0.00    +0.000 N 
BRANCH  15  17
ATOM     16  C   UNL     1       1.035  -0.240  -0.360  0.00  0.00    +0.000 C 
ATOM     17  C   UNL     1       2.503   0.006  -0.144  0.00  0.00    +0.000 C 
ENDBRANCH  15  17
BRANCH  15  18
ATOM     18  C   UNL     1       2.037   1.895   1.685  0.00  0.00    +0.000 C 
ATOM     19  C   UNL     1       0.539   1.777   1.561  0.00  0.00    +0.000 C 
ENDBRANCH  15  18
ENDBRANCH   9  15
ENDBRANCH   1  12
BRANCH   1  20
ATOM     20  C   UNL     1       9.506   1.998   0.345  0.00  0.00    +0.000 A 
ATOM     21  C   UNL     1      10.534   1.048   0.217  0.00  0.00    +0.000 A 
ATOM     22  C   UNL     1      11.510   1.213  -0.787  0.00  0.00    +0.000 A 
ATOM     23  C   UNL     1      11.346   2.214  -1.768  0.00  0.00    +0.000 A 
ATOM     24  C   UNL     1      10.287   3.111  -1.689  0.00  0.00    +0.000 A 
ATOM     25  C   UNL     1       9.397   3.015  -0.624  0.00  0.00    +0.000 A 
BRANCH  23  26
ATOM     26  S   UNL     1      12.406   2.216  -3.193  0.00  0.00    +0.000 S 
ATOM     27  O   UNL     1      12.472   0.832  -3.642  0.00  0.00    +0.000 OA
ATOM     28  O   UNL     1      11.985   3.291  -4.049  0.00  0.00    +0.000 OA
BRANCH  26  29
ATOM     29  O   UNL     1      13.855   2.584  -2.590  0.00  0.00    +0.000 OA
ATOM     30  H   UNL     1      14.294   1.785  -2.240  0.00  0.00    +0.000 HD
ENDBRANCH  26  29
ENDBRANCH  23  26
BRANCH  21  31
ATOM     31  S   UNL     1      10.663  -0.378   1.313  0.00  0.00    +0.000 S 
ATOM     32  O   UNL     1      12.007  -0.339   1.863  0.00  0.00    +0.000 OA
ATOM     33  O   UNL     1       9.522  -0.480   2.190  0.00  0.00    +0.000 OA
BRANCH  31  34
ATOM     34  O   UNL     1      10.589  -1.642   0.317  0.00  0.00    +0.000 OA
ATOM     35  H   UNL     1      11.420  -1.769  -0.176  0.00  0.00    +0.000 HD
ENDBRANCH  31  34
ENDBRANCH  21  31
BRANCH  24  36
ATOM     36  O   UNL     1      10.029   4.125  -2.563  0.00  0.00    +0.000 OA
ATOM     37  H   UNL     1      10.683   4.156  -3.298  0.00  0.00    +0.000 HD
ENDBRANCH  24  36
ENDBRANCH   1  20
BRANCH   8  38
ATOM     38  C   UNL     1       9.854   0.845   7.646  0.00  0.00    +0.000 C 
ATOM     39  C   UNL     1       8.363   1.019   7.540  0.00  0.00    +0.000 C 
ENDBRANCH   8  38
BRANCH   8  40
ATOM     40  C   UNL     1      12.219   1.072   6.634  0.00  0.00    +0.000 C 
ATOM     41  C   UNL     1      12.593   0.493   7.986  0.00  0.00    +0.000 C 
ENDBRANCH   8  40
TORSDOF 12
