REMARK  Name = Pazopanib
REMARK  9 active torsions:
REMARK  status: ('A' for Active; 'I' for Inactive)
REMARK    1  A    between atoms: C_1  and  N_2
REMARK    2  A    between atoms: N_2  and  C_3
REMARK    3  A    between atoms: N_2  and  C_14
REMARK    4  A    between atoms: N_7  and  C_8
REMARK    5  A    between atoms: C_9  and  C_10
REMARK    6  A    between atoms: N_19  and  C_20
REMARK    7  A    between atoms: C_23  and  C_24
REMARK    8  A    between atoms: C_25  and  S_27
REMARK    9  A    between atoms: S_27  and  N_28
REMARK                            x       y       z     vdW  Elec       q    Type
REMARK                         _______ _______ _______ _____ _____    ______ ____
ROOT
ATOM      1  C   UNL     1       3.116  -0.693  -1.033  0.00  0.00    +0.000 A 
ATOM      2  C   UNL     1       4.200  -1.500  -0.751  0.00  0.00    +0.000 A 
ATOM      3  C   UNL     1       4.653  -2.288  -1.779  0.00  0.00    +0.000 A 
ATOM      4  N   UNL     1       4.267  -2.130  -3.058  0.00  0.00    +0.000 NA
ATOM      5  C   UNL     1       3.325  -1.203  -3.278  0.00  0.00    +0.000 A 
ATOM      6  N   UNL     1       3.035  -0.855  -4.601  0.00  0.00    +0.000 N 
ATOM      7  N   UNL     1       2.660  -0.582  -2.287  0.00  0.00    +0.000 NA
ATOM      8  H   UNL     1       3.535  -1.395  -5.286  0.00  0.00    +0.000 HD
ENDROOT
BRANCH   6   9
ATOM      9  C   UNL     1       2.057   0.065  -4.999  0.00  0.00    +0.000 A 
ATOM     10  C   UNL     1       2.103   1.384  -4.534  0.00  0.00    +0.000 A 
ATOM     11  C   UNL     1       1.045   2.264  -4.756  0.00  0.00    +0.000 A 
ATOM     12  C   UNL     1      -0.144   1.810  -5.337  0.00  0.00    +0.000 A 
ATOM     13  C   UNL     1      -1.324   2.736  -5.360  0.00  0.00    +0.000 C 
ATOM     14  C   UNL     1      -0.185   0.490  -5.829  0.00  0.00    +0.000 A 
ATOM     15  C   UNL     1       0.945  -0.346  -5.740  0.00  0.00    +0.000 A 
BRANCH  14  16
ATOM     16  S   UNL     1      -1.692  -0.179  -6.521  0.00  0.00    +0.000 S 
ATOM     17  O   UNL     1      -2.178   0.732  -7.521  0.00  0.00    +0.000 OA
ATOM     18  O   UNL     1      -1.485  -1.589  -6.793  0.00  0.00    +0.000 OA
BRANCH  16  19
ATOM     19  N   UNL     1      -2.749  -0.125  -5.226  0.00  0.00    +0.000 NA
ATOM     20  H   UNL     1      -3.225   0.754  -5.054  0.00  0.00    +0.000 HD
ATOM     21  H   UNL     1      -2.572  -0.768  -4.462  0.00  0.00    +0.000 HD
ENDBRANCH  16  19
ENDBRANCH  14  16
ENDBRANCH   6   9
BRANCH   1  23
ATOM     22  C   UNL     1       1.019  -0.001  -0.022  0.00  0.00    +0.000 C 
ATOM     23  N   UNL     1       2.483   0.024   0.004  0.00  0.00    +0.000 N 
BRANCH  23  24
ATOM     24  C   UNL     1       3.149   0.708   1.044  0.00  0.00    +0.000 A 
ATOM     25  C   UNL     1       4.326   1.448   0.721  0.00  0.00    +0.000 A 
ATOM     26  C   UNL     1       4.997   2.015   1.818  0.00  0.00    +0.000 A 
ATOM     27  N   UNL     1       6.129   2.739   1.874  0.00  0.00    +0.000 NA
ATOM     28  N   UNL     1       6.314   2.998   3.189  0.00  0.00    +0.000 N 
ATOM     29  C   UNL     1       7.464   3.767   3.612  0.00  0.00    +0.000 C 
ATOM     30  C   UNL     1       5.341   2.474   4.007  0.00  0.00    +0.000 A 
ATOM     31  C   UNL     1       5.320   2.615   5.480  0.00  0.00    +0.000 C 
ATOM     32  C   UNL     1       4.479   1.845   3.146  0.00  0.00    +0.000 A 
ATOM     33  C   UNL     1       3.327   1.161   3.515  0.00  0.00    +0.000 A 
ATOM     34  C   UNL     1       2.678   0.601   2.397  0.00  0.00    +0.000 A 
ENDBRANCH  23  24
ENDBRANCH   1  23
TORSDOF 5
