REMARK  Name = PBT-434
REMARK  6 active torsions:
REMARK  status: ('A' for Active; 'I' for Inactive)
REMARK    1  A    between atoms: C_1  and  C_2
REMARK    2  A    between atoms: C_2  and  N_3
REMARK    3  A    between atoms: N_3  and  C_4
REMARK    4  A    between atoms: C_4  and  C_5
REMARK    5  A    between atoms: C_14  and  O_15
REMARK    6  A    between atoms: N_18  and  C_19
REMARK                            x       y       z     vdW  Elec       q    Type
REMARK                         _______ _______ _______ _____ _____    ______ ____
ROOT
ATOM      1  C   UNL     1       4.850  -1.952   2.003  0.00  0.00    +0.000 A 
ATOM      2  N   UNL     1       5.433  -1.556   3.094  0.00  0.00    +0.000 NA
ATOM      3  C   UNL     1       5.767  -2.496   4.090  0.00  0.00    +0.000 A 
ATOM      4  C   UNL     1       5.462  -3.858   3.944  0.00  0.00    +0.000 A 
ATOM      5  C   UNL     1       5.763  -4.774   4.969  0.00  0.00    +0.000 A 
ATOM      6 CL   UNL     1       5.431  -6.472   4.906  0.00  0.00    +0.000 Cl
ATOM      7  C   UNL     1       6.369  -4.334   6.145  0.00  0.00    +0.000 A 
ATOM      8  C   UNL     1       6.682  -2.991   6.303  0.00  0.00    +0.000 A 
ATOM      9 CL   UNL     1       7.428  -2.488   7.775  0.00  0.00    +0.000 Cl
ATOM     10  C   UNL     1       6.389  -2.073   5.286  0.00  0.00    +0.000 A 
ATOM     11  C   UNL     1       4.821  -4.265   2.680  0.00  0.00    +0.000 A 
ATOM     12  O   UNL     1       4.519  -5.442   2.481  0.00  0.00    +0.000 OA
ATOM     13  N   UNL     1       4.570  -3.282   1.736  0.00  0.00    +0.000 N 
ATOM     14  C   UNL     1       4.010  -3.745   0.468  0.00  0.00    +0.000 C 
ENDROOT
BRANCH  10  15
ATOM     15  O   UNL     1       6.701  -0.743   5.450  0.00  0.00    +0.000 OA
ATOM     16  H   UNL     1       7.104  -0.625   6.330  0.00  0.00    +0.000 HD
ENDBRANCH  10  15
BRANCH   1  17
ATOM     17  C   UNL     1       4.419  -0.906   0.962  0.00  0.00    +0.000 C 
BRANCH  17  18
ATOM     18  N   UNL     1       2.953  -0.789   0.981  0.00  0.00    +0.000 NA
ATOM     19  H   UNL     1       2.504  -1.693   0.895  0.00  0.00    +0.000 HD
BRANCH  18  21
ATOM     20  C   UNL     1       0.941   0.044  -0.076  0.00  0.00    +0.000 C 
ATOM     21  C   UNL     1       2.463   0.084  -0.076  0.00  0.00    +0.000 C 
ENDBRANCH  18  21
ENDBRANCH  17  18
ENDBRANCH   1  17
TORSDOF 4
