REMARK  Name = Pefloxacin
REMARK  6 active torsions:
REMARK  status: ('A' for Active; 'I' for Inactive)
REMARK    1  A    between atoms: C_1  and  C_2
REMARK    2  A    between atoms: C_2  and  N_3
REMARK    3  A    between atoms: C_5  and  C_6
REMARK    4  A    between atoms: C_6  and  O_7
REMARK    5  A    between atoms: C_15  and  N_18
REMARK    6  A    between atoms: N_21  and  C_22
REMARK                            x       y       z     vdW  Elec       q    Type
REMARK                         _______ _______ _______ _____ _____    ______ ____
ROOT
ATOM      1  N   UNL     1       3.076  -0.221   1.269  0.00  0.00    +0.000 N 
ATOM      2  C   UNL     1       3.385   0.820   2.144  0.00  0.00    +0.000 A 
ATOM      3  C   UNL     1       3.804   0.700   3.415  0.00  0.00    +0.000 A 
ATOM      4  C   UNL     1       3.932  -0.671   3.942  0.00  0.00    +0.000 A 
ATOM      5  O   UNL     1       4.309  -0.854   5.100  0.00  0.00    +0.000 OA
ATOM      6  C   UNL     1       3.554  -1.801   3.065  0.00  0.00    +0.000 A 
ATOM      7  C   UNL     1       3.569  -3.089   3.598  0.00  0.00    +0.000 A 
ATOM      8  C   UNL     1       3.028  -4.126   2.857  0.00  0.00    +0.000 A 
ATOM      9  F   UNL     1       2.933  -5.337   3.429  0.00  0.00    +0.000 F 
ATOM     10  C   UNL     1       2.605  -3.946   1.534  0.00  0.00    +0.000 A 
ATOM     11  C   UNL     1       2.750  -2.670   0.975  0.00  0.00    +0.000 A 
ATOM     12  C   UNL     1       3.133  -1.554   1.744  0.00  0.00    +0.000 A 
ENDROOT
BRANCH  10  13
ATOM     13  N   UNL     1       2.056  -4.980   0.811  0.00  0.00    +0.000 N 
ATOM     14  C   UNL     1       0.789  -5.596   1.227  0.00  0.00    +0.000 C 
ATOM     15  C   UNL     1       0.880  -7.130   1.083  0.00  0.00    +0.000 C 
ATOM     16  N   UNL     1       1.275  -7.519  -0.293  0.00  0.00    +0.000 NA
ATOM     17  C   UNL     1       1.309  -8.970  -0.428  0.00  0.00    +0.000 C 
ATOM     18  C   UNL     1       2.607  -6.931  -0.570  0.00  0.00    +0.000 C 
ATOM     19  C   UNL     1       2.586  -5.386  -0.489  0.00  0.00    +0.000 C 
ENDBRANCH  10  13
BRANCH   1  21
ATOM     20  C   UNL     1       1.010   0.008  -0.089  0.00  0.00    +0.000 C 
ATOM     21  C   UNL     1       2.535   0.030  -0.082  0.00  0.00    +0.000 C 
ENDBRANCH   1  21
BRANCH   3  22
ATOM     22  C   UNL     1       4.108   1.906   4.220  0.00  0.00    +0.000 C 
ATOM     23  O   UNL     1       4.008   3.042   3.787  0.00  0.00    +0.000 OA
BRANCH  22  24
ATOM     24  O   UNL     1       4.514   1.657   5.488  0.00  0.00    +0.000 OA
ATOM     25  H   UNL     1       4.557   0.699   5.726  0.00  0.00    +0.000 HD
ENDBRANCH  22  24
ENDBRANCH   3  22
TORSDOF 4
