REMARK  Name = Pemetrexed
REMARK  11 active torsions:
REMARK  status: ('A' for Active; 'I' for Inactive)
REMARK    1  A    between atoms: C_10  and  C_11
REMARK    2  A    between atoms: C_11  and  C_12
REMARK    3  A    between atoms: C_12  and  C_13
REMARK    4  A    between atoms: C_16  and  C_19
REMARK    5  A    between atoms: N_21  and  CA_22
REMARK    6  A    between atoms: CA_22  and  CB_23
REMARK    7  A    between atoms: CA_22  and  C_28
REMARK    8  A    between atoms: CB_23  and  CG_24
REMARK    9  A    between atoms: CG_24  and  CD_25
REMARK   10  A    between atoms: CD_25  and  OE1_26
REMARK   11  A    between atoms: C_28  and  O_29
REMARK                            x       y       z     vdW  Elec       q    Type
REMARK                         _______ _______ _______ _____ _____    ______ ____
ROOT
ATOM      1  C   UNK A   0       8.510   2.980   0.133  0.00  0.00    +0.000 A 
ATOM      2  C   UNK A   0       8.199   4.344   0.129  0.00  0.00    +0.000 A 
ATOM      3  C   UNK A   0       9.225   5.269   0.105  0.00  0.00    +0.000 A 
ATOM      4  C   UNK A   0      10.552   4.821   0.064  0.00  0.00    +0.000 A 
ATOM      5  C   UNK A   0      10.851   3.459   0.127  0.00  0.00    +0.000 A 
ATOM      6  C   UNK A   0       9.829   2.543   0.148  0.00  0.00    +0.000 A 
ENDROOT
BRANCH   4   7
ATOM      7  C   UNK A   0      11.613   5.826  -0.121  0.00  0.00    +0.000 C 
ATOM      8  O   UNK A   0      11.304   6.957  -0.470  0.00  0.00    +0.000 OA
ATOM      9  N   GLU A   1      12.909   5.425   0.139  0.00  0.00    +0.000 N 
ATOM     10  H   GLU A   1      13.062   4.453   0.305  0.00  0.00    +0.000 HD
BRANCH   9  11
ATOM     11  CA  GLU A   1      14.029   6.364   0.189  0.00  0.00    +0.000 C 
BRANCH  11  12
ATOM     12  C   GLU A   1      15.435   5.713   0.181  0.00  0.00    +0.000 C 
ATOM     13  OXT GLU A   1      16.465   6.376   0.214  0.00  0.00    +0.000 OA
BRANCH  12  14
ATOM     14  O   GLU A   1      15.506   4.364   0.197  0.00  0.00    +0.000 OA
ATOM     15  H   GLU A   1      14.693   3.844   0.158  0.00  0.00    +0.000 HD
ENDBRANCH  12  14
ENDBRANCH  11  12
BRANCH  11  16
ATOM     16  CB  GLU A   1      13.963   7.262   1.451  0.00  0.00    +0.000 C 
BRANCH  16  17
ATOM     17  CG  GLU A   1      12.677   8.071   1.591  0.00  0.00    +0.000 C 
BRANCH  17  18
ATOM     18  CD  GLU A   1      12.502   8.986   2.768  0.00  0.00    +0.000 C 
ATOM     19  OE2 GLU A   1      11.479   9.640   2.930  0.00  0.00    +0.000 OA
BRANCH  18  20
ATOM     20  OE1 GLU A   1      13.496   8.995   3.671  0.00  0.00    +0.000 OA
ATOM     21  HE1 GLU A   1      14.263   8.435   3.464  0.00  0.00    +0.000 HD
ENDBRANCH  18  20
ENDBRANCH  17  18
ENDBRANCH  16  17
ENDBRANCH  11  16
ENDBRANCH   9  11
ENDBRANCH   4   7
BRANCH   1  22
ATOM     22  C   UNK A   0       7.384   2.015   0.112  0.00  0.00    +0.000 C 
BRANCH  22  23
ATOM     23  C   UNK A   0       7.737   0.545   0.111  0.00  0.00    +0.000 C 
BRANCH  23  33
ATOM     24  N   UNK A   0       1.113  -0.190   0.061  0.00  0.00    +0.000 N 
ATOM     25  C   UNK A   0       2.454  -0.119   0.073  0.00  0.00    +0.000 A 
ATOM     26  N   UNK A   0       2.970   1.066   0.077  0.00  0.00    +0.000 NA
ATOM     27  C   UNK A   0       4.335   1.221   0.084  0.00  0.00    +0.000 A 
ATOM     28  O   UNK A   0       4.801   2.356   0.086  0.00  0.00    +0.000 OA
ATOM     29  C   UNK A   0       5.146  -0.019   0.090  0.00  0.00    +0.000 A 
ATOM     30  C   UNK A   0       4.487  -1.226   0.085  0.00  0.00    +0.000 A 
ATOM     31  N   UNK A   0       5.377  -2.256   0.091  0.00  0.00    +0.000 N 
ATOM     32  C   UNK A   0       6.644  -1.730   0.101  0.00  0.00    +0.000 A 
ATOM     33  C   UNK A   0       6.546  -0.345   0.100  0.00  0.00    +0.000 A 
ATOM     34  N   UNK A   0       3.144  -1.302   0.076  0.00  0.00    +0.000 N 
ATOM     35  H   UNK A   0       0.633   0.705   0.074  0.00  0.00    +0.000 HD
ATOM     36  H   UNK A   0       0.565  -1.030   0.080  0.00  0.00    +0.000 HD
ATOM     37  H   UNK A   0       5.169  -3.244   0.090  0.00  0.00    +0.000 HD
ATOM     38  H   UNK A   0       2.626  -2.167   0.066  0.00  0.00    +0.000 HD
ENDBRANCH  23  33
ENDBRANCH  22  23
ENDBRANCH   1  22
TORSDOF 11
