REMARK  Name = Pemigatinib
REMARK  9 active torsions:
REMARK  status: ('A' for Active; 'I' for Inactive)
REMARK    1  A    between atoms: C_1  and  C_2
REMARK    2  A    between atoms: C_2  and  N_3
REMARK    3  A    between atoms: N_6  and  C_24
REMARK    4  A    between atoms: C_13  and  C_14
REMARK    5  A    between atoms: C_14  and  N_15
REMARK    6  A    between atoms: C_27  and  O_28
REMARK    7  A    between atoms: O_28  and  C_29
REMARK    8  A    between atoms: C_31  and  O_32
REMARK    9  A    between atoms: O_32  and  C_33
REMARK                            x       y       z     vdW  Elec       q    Type
REMARK                         _______ _______ _______ _____ _____    ______ ____
ROOT
ATOM      1  N   UNL     1       2.785  -1.490  -0.555  0.00  0.00    +0.000 N 
ATOM      2  C   UNL     1       1.956  -2.580  -0.769  0.00  0.00    +0.000 C 
ATOM      3  O   UNL     1       0.772  -2.478  -1.119  0.00  0.00    +0.000 OA
ATOM      4  N   UNL     1       2.546  -3.801  -0.454  0.00  0.00    +0.000 N 
ATOM      5  C   UNL     1       3.805  -4.105  -1.064  0.00  0.00    +0.000 C 
ATOM      6  C   UNL     1       4.677  -2.916  -1.146  0.00  0.00    +0.000 A 
ATOM      7  C   UNL     1       5.983  -3.077  -1.573  0.00  0.00    +0.000 A 
ATOM      8  N   UNL     1       6.811  -2.055  -1.708  0.00  0.00    +0.000 NA
ATOM      9  C   UNL     1       6.235  -0.894  -1.386  0.00  0.00    +0.000 A 
ATOM     10  N   UNL     1       6.909   0.237  -1.451  0.00  0.00    +0.000 N 
ATOM     11  C   UNL     1       6.255   1.384  -1.136  0.00  0.00    +0.000 A 
ATOM     12  C   UNL     1       5.002   0.903  -0.819  0.00  0.00    +0.000 A 
ATOM     13  C   UNL     1       4.995  -0.539  -0.957  0.00  0.00    +0.000 A 
ATOM     14  C   UNL     1       4.150  -1.633  -0.846  0.00  0.00    +0.000 A 
ATOM     15  H   UNL     1       7.851   0.071  -1.719  0.00  0.00    +0.000 HD
ENDROOT
BRANCH   4  16
ATOM     16  C   UNL     1       2.140  -4.428   0.757  0.00  0.00    +0.000 A 
ATOM     17  C   UNL     1       2.939  -4.502   1.909  0.00  0.00    +0.000 A 
ATOM     18  F   UNL     1       4.174  -3.970   1.901  0.00  0.00    +0.000 F 
ATOM     19  C   UNL     1       2.451  -5.081   3.097  0.00  0.00    +0.000 A 
ATOM     20  C   UNL     1       1.160  -5.614   3.102  0.00  0.00    +0.000 A 
ATOM     21  C   UNL     1       0.360  -5.573   1.955  0.00  0.00    +0.000 A 
ATOM     22  C   UNL     1       0.856  -4.970   0.799  0.00  0.00    +0.000 A 
ATOM     23  F   UNL     1       0.134  -4.966  -0.332  0.00  0.00    +0.000 F 
BRANCH  19  24
ATOM     24  O   UNL     1       3.287  -5.073   4.186  0.00  0.00    +0.000 OA
ATOM     25  C   UNL     1       2.788  -5.650   5.394  0.00  0.00    +0.000 C 
ENDBRANCH  19  24
BRANCH  21  26
ATOM     26  O   UNL     1      -0.866  -6.164   2.105  0.00  0.00    +0.000 OA
ATOM     27  C   UNL     1      -1.714  -6.165   0.962  0.00  0.00    +0.000 C 
ENDBRANCH  21  26
ENDBRANCH   4  16
BRANCH   1  29
ATOM     28  C   UNL     1       0.836  -0.045   0.133  0.00  0.00    +0.000 C 
ATOM     29  C   UNL     1       2.321  -0.220   0.008  0.00  0.00    +0.000 C 
ENDBRANCH   1  29
BRANCH  11  30
ATOM     30  C   UNL     1       6.813   2.795  -1.136  0.00  0.00    +0.000 C 
BRANCH  30  31
ATOM     31  N   UNL     1       8.225   3.067  -1.490  0.00  0.00    +0.000 NA
ATOM     32  C   UNL     1       8.589   2.743  -2.878  0.00  0.00    +0.000 C 
ATOM     33  C   UNL     1       8.627   1.256  -3.133  0.00  0.00    +0.000 C 
ATOM     34  O   UNL     1       9.311   0.511  -2.049  0.00  0.00    +0.000 OA
ATOM     35  C   UNL     1       9.281   0.995  -0.648  0.00  0.00    +0.000 C 
ATOM     36  C   UNL     1       9.216   2.500  -0.563  0.00  0.00    +0.000 C 
ENDBRANCH  30  31
ENDBRANCH  11  30
TORSDOF 6
