REMARK  Name = Pemirolast
REMARK  2 active torsions:
REMARK  status: ('A' for Active; 'I' for Inactive)
REMARK    1  A    between atoms: C_1  and  C_2
REMARK    2  A    between atoms: C_9  and  C_13
REMARK                            x       y       z     vdW  Elec       q    Type
REMARK                         _______ _______ _______ _____ _____    ______ ____
ROOT
ATOM      1  C   UNL     1       0.982   0.050   0.052  0.00  0.00    +0.000 C 
ATOM      2  C   UNL     1       2.473   0.093   0.033  0.00  0.00    +0.000 A 
ATOM      3  C   UNL     1       3.174   1.235  -0.033  0.00  0.00    +0.000 A 
ATOM      4  C   UNL     1       4.602   1.236   0.109  0.00  0.00    +0.000 A 
ATOM      5  C   UNL     1       5.225   0.113   0.473  0.00  0.00    +0.000 A 
ATOM      6  N   UNL     1       4.577  -1.117   0.440  0.00  0.00    +0.000 N 
ATOM      7  C   UNL     1       5.357  -2.266   0.518  0.00  0.00    +0.000 A 
ATOM      8  O   UNL     1       6.582  -2.245   0.687  0.00  0.00    +0.000 OA
ATOM      9  C   UNL     1       4.648  -3.545   0.283  0.00  0.00    +0.000 A 
ATOM     10  C   UNL     1       3.341  -3.474  -0.005  0.00  0.00    +0.000 A 
ATOM     11  N   UNL     1       2.601  -2.328  -0.076  0.00  0.00    +0.000 NA
ATOM     12  C   UNL     1       3.221  -1.205   0.129  0.00  0.00    +0.000 A 
ENDROOT
BRANCH   9  13
ATOM     13  C   UNL     1       5.385  -4.750   0.366  0.00  0.00    +0.000 A 
ATOM     14  N   UNL     1       6.047  -5.209   1.439  0.00  0.00    +0.000 NA
ATOM     15  N   UNL     1       6.557  -6.337   0.933  0.00  0.00    +0.000 N 
ATOM     16  N   UNL     1       6.211  -6.624  -0.329  0.00  0.00    +0.000 NA
ATOM     17  N   UNL     1       5.446  -5.607  -0.705  0.00  0.00    +0.000 NA
ATOM     18  H   UNL     1       7.158  -6.946   1.480  0.00  0.00    +0.000 HD
ENDBRANCH   9  13
TORSDOF 1
