REMARK  Name = Pemoline
REMARK  1 active torsions:
REMARK  status: ('A' for Active; 'I' for Inactive)
REMARK    1  A    between atoms: C_6  and  C_8
REMARK                            x       y       z     vdW  Elec       q    Type
REMARK                         _______ _______ _______ _____ _____    ______ ____
ROOT
ATOM      1  N   UNL     1       1.294   0.111   0.133  0.00  0.00    +0.000 N 
ATOM      2  C   UNL     1       2.634   0.008   0.112  0.00  0.00    +0.000 C 
ATOM      3  N   UNL     1       3.318  -1.078   0.124  0.00  0.00    +0.000 NA
ATOM      4  C   UNL     1       4.624  -0.671   0.039  0.00  0.00    +0.000 C 
ATOM      5  O   UNL     1       5.602  -1.396   0.190  0.00  0.00    +0.000 OA
ATOM      6  C   UNL     1       4.676   0.806  -0.296  0.00  0.00    +0.000 C 
ATOM      7  O   UNL     1       3.312   1.178   0.026  0.00  0.00    +0.000 OA
ATOM      8  H   UNL     1       0.745  -0.735   0.041  0.00  0.00    +0.000 HD
ATOM      9  H   UNL     1       0.817   1.000   0.102  0.00  0.00    +0.000 HD
ENDROOT
BRANCH   6  10
ATOM     10  C   UNL     1       4.941   1.082  -1.763  0.00  0.00    +0.000 A 
ATOM     11  C   UNL     1       6.063   1.798  -2.208  0.00  0.00    +0.000 A 
ATOM     12  C   UNL     1       6.194   2.124  -3.565  0.00  0.00    +0.000 A 
ATOM     13  C   UNL     1       5.262   1.663  -4.496  0.00  0.00    +0.000 A 
ATOM     14  C   UNL     1       4.174   0.912  -4.073  0.00  0.00    +0.000 A 
ATOM     15  C   UNL     1       4.018   0.631  -2.723  0.00  0.00    +0.000 A 
ENDBRANCH   6  10
TORSDOF 1
