REMARK  Name = Penbutolol
REMARK  11 active torsions:
REMARK  status: ('A' for Active; 'I' for Inactive)
REMARK    1  A    between atoms: C_1  and  C_2
REMARK    2  A    between atoms: C_2  and  C_3
REMARK    3  A    between atoms: C_2  and  C_4
REMARK    4  A    between atoms: C_2  and  N_5
REMARK    5  A    between atoms: N_5  and  C_6
REMARK    6  A    between atoms: C_6  and  C_7
REMARK    7  A    between atoms: C_7  and  O_8
REMARK    8  A    between atoms: C_7  and  C_9
REMARK    9  A    between atoms: C_9  and  O_10
REMARK   10  A    between atoms: O_10  and  C_11
REMARK   11  A    between atoms: C_16  and  C_17
REMARK                            x       y       z     vdW  Elec       q    Type
REMARK                         _______ _______ _______ _____ _____    ______ ____
ROOT
ATOM      1  O   UNL     1       6.973   2.782   3.298  0.00  0.00    +0.000 OA
ENDROOT
BRANCH   1   2
ATOM      2  C   UNL     1       8.343   2.868   3.282  0.00  0.00    +0.000 A 
ATOM      3  C   UNL     1       8.899   3.025   4.559  0.00  0.00    +0.000 A 
ATOM      4  C   UNL     1      10.239   3.347   4.742  0.00  0.00    +0.000 A 
ATOM      5  C   UNL     1      11.062   3.494   3.625  0.00  0.00    +0.000 A 
ATOM      6  C   UNL     1      10.530   3.308   2.353  0.00  0.00    +0.000 A 
ATOM      7  C   UNL     1       9.173   2.988   2.141  0.00  0.00    +0.000 A 
BRANCH   7   8
ATOM      8  C   UNL     1       8.723   2.876   0.700  0.00  0.00    +0.000 C 
ATOM      9  C   UNL     1       8.282   1.460   0.279  0.00  0.00    +0.000 C 
ATOM     10  C   UNL     1       7.150   1.675  -0.731  0.00  0.00    +0.000 C 
ATOM     11  C   UNL     1       6.736   3.158  -0.692  0.00  0.00    +0.000 C 
ATOM     12  C   UNL     1       7.598   3.866   0.350  0.00  0.00    +0.000 C 
ENDBRANCH   7   8
ENDBRANCH   1   2
BRANCH   1  13
ATOM     13  C   UNL     1       6.350   1.858   2.414  0.00  0.00    +0.000 C 
BRANCH  13  14
ATOM     14  C   UNL     1       4.835   1.896   2.298  0.00  0.00    +0.000 C 
BRANCH  14  15
ATOM     15  O   UNL     1       4.404   1.008   1.250  0.00  0.00    +0.000 OA
ATOM     16  H   UNL     1       4.810   0.135   1.401  0.00  0.00    +0.000 HD
ENDBRANCH  14  15
BRANCH  14  17
ATOM     17  C   UNL     1       4.275   1.421   3.607  0.00  0.00    +0.000 C 
BRANCH  17  18
ATOM     18  N   UNL     1       4.891   2.178   4.687  0.00  0.00    +0.000 NA
ATOM     19  H   UNL     1       5.910   2.222   4.576  0.00  0.00    +0.000 HD
BRANCH  18  21
ATOM     20  C   UNL     1       5.407   2.605   6.979  0.00  0.00    +0.000 C 
ATOM     21  C   UNL     1       4.588   1.725   6.022  0.00  0.00    +0.000 C 
ATOM     22  C   UNL     1       4.996   0.259   6.214  0.00  0.00    +0.000 C 
ATOM     23  C   UNL     1       3.097   1.984   6.194  0.00  0.00    +0.000 C 
ENDBRANCH  18  21
ENDBRANCH  17  18
ENDBRANCH  14  17
ENDBRANCH  13  14
ENDBRANCH   1  13
TORSDOF 8
