REMARK  Name = Penciclovir
REMARK  7 active torsions:
REMARK  status: ('A' for Active; 'I' for Inactive)
REMARK    1  A    between atoms: N_9  and  C_10
REMARK    2  A    between atoms: C_10  and  C_11
REMARK    3  A    between atoms: C_11  and  C_12
REMARK    4  A    between atoms: C_12  and  C_13
REMARK    5  A    between atoms: C_12  and  C_15
REMARK    6  A    between atoms: C_13  and  O_14
REMARK    7  A    between atoms: C_15  and  O_16
REMARK                            x       y       z     vdW  Elec       q    Type
REMARK                         _______ _______ _______ _____ _____    ______ ____
ROOT
ATOM      1  N   UNL     1       1.064  -0.103  -0.002  0.00  0.00    +0.000 N 
ATOM      2  C   UNL     1       2.413  -0.200  -0.009  0.00  0.00    +0.000 A 
ATOM      3  N   UNL     1       3.022  -1.347  -0.013  0.00  0.00    +0.000 NA
ATOM      4  C   UNL     1       4.424  -1.395  -0.011  0.00  0.00    +0.000 A 
ATOM      5  O   UNL     1       5.042  -2.458  -0.011  0.00  0.00    +0.000 OA
ATOM      6  C   UNL     1       5.113  -0.100   0.001  0.00  0.00    +0.000 A 
ATOM      7  C   UNL     1       4.365   1.045   0.016  0.00  0.00    +0.000 A 
ATOM      8  N   UNL     1       3.025   1.016   0.003  0.00  0.00    +0.000 N 
ATOM      9  N   UNL     1       5.242   2.080   0.049  0.00  0.00    +0.000 N 
ATOM     10  C   UNL     1       6.503   1.529   0.012  0.00  0.00    +0.000 A 
ATOM     11  N   UNL     1       6.459   0.212  -0.003  0.00  0.00    +0.000 NA
ATOM     12  H   UNL     1       0.532  -0.964  -0.014  0.00  0.00    +0.000 HD
ATOM     13  H   UNL     1       0.546   0.762  -0.020  0.00  0.00    +0.000 HD
ATOM     14  H   UNL     1       2.412   1.812  -0.014  0.00  0.00    +0.000 HD
ENDROOT
BRANCH   9  15
ATOM     15  C   UNL     1       4.996   3.503   0.025  0.00  0.00    +0.000 C 
BRANCH  15  16
ATOM     16  C   UNL     1       3.519   3.868   0.013  0.00  0.00    +0.000 C 
BRANCH  16  17
ATOM     17  C   UNL     1       3.194   5.351  -0.002  0.00  0.00    +0.000 C 
BRANCH  17  18
ATOM     18  C   UNL     1       3.763   6.034  -1.247  0.00  0.00    +0.000 C 
BRANCH  18  19
ATOM     19  O   UNL     1       5.182   5.969  -1.285  0.00  0.00    +0.000 OA
ATOM     20  H   UNL     1       5.533   6.287  -0.437  0.00  0.00    +0.000 HD
ENDBRANCH  18  19
ENDBRANCH  17  18
BRANCH  17  21
ATOM     21  C   UNL     1       1.666   5.500   0.033  0.00  0.00    +0.000 C 
BRANCH  21  22
ATOM     22  O   UNL     1       1.308   6.869   0.058  0.00  0.00    +0.000 OA
ATOM     23  H   UNL     1       1.709   7.267   0.850  0.00  0.00    +0.000 HD
ENDBRANCH  21  22
ENDBRANCH  17  21
ENDBRANCH  16  17
ENDBRANCH  15  16
ENDBRANCH   9  15
TORSDOF 7
