REMARK  Name = Penicillamine
REMARK  7 active torsions:
REMARK  status: ('A' for Active; 'I' for Inactive)
REMARK    1  A    between atoms: CA_2  and  N_3
REMARK    2  A    between atoms: CA_2  and  C_4
REMARK    3  A    between atoms: CA_2  and  C_7
REMARK    4  A    between atoms: C_4  and  O_5
REMARK    5  A    between atoms: C_7  and  C_8
REMARK    6  A    between atoms: C_7  and  C_9
REMARK    7  A    between atoms: C_7  and  S_10
REMARK                            x       y       z     vdW  Elec       q    Type
REMARK                         _______ _______ _______ _____ _____    ______ ____
ROOT
ATOM      1  CA  UNL     1       2.150   0.130   0.025  0.00  0.00    +0.000 C 
ENDROOT
BRANCH   1   2
ATOM      2  N   UNL     1       0.664   0.028  -0.022  0.00  0.00    +0.000 NA
ATOM      3  H1  UNL     1       0.237   0.952  -0.036  0.00  0.00    +0.000 HD
ATOM      4  H2  UNL     1       0.300  -0.462   0.793  0.00  0.00    +0.000 HD
ENDBRANCH   1   2
BRANCH   1   5
ATOM      5  C   UNL     1       2.642   0.829   1.329  0.00  0.00    +0.000 C 
ATOM      6  C   UNL     1       2.098   2.268   1.441  0.00  0.00    +0.000 C 
ATOM      7  C   UNL     1       2.154   0.058   2.579  0.00  0.00    +0.000 C 
BRANCH   5   8
ATOM      8  S   UNL     1       4.497   0.808   1.505  0.00  0.00    +0.000 S 
ATOM      9  H   UNL     1       4.915   1.181   0.285  0.00  0.00    +0.000 HD
ENDBRANCH   5   8
ENDBRANCH   1   5
BRANCH   1  10
ATOM     10  C   UNL     1       2.634   0.738  -1.327  0.00  0.00    +0.000 C 
ATOM     11  OXT UNL     1       2.300   0.284  -2.420  0.00  0.00    +0.000 OA
BRANCH  10  12
ATOM     12  O   UNL     1       3.453   1.809  -1.290  0.00  0.00    +0.000 OA
ATOM     13  H   UNL     1       3.675   2.203  -0.431  0.00  0.00    +0.000 HD
ENDBRANCH  10  12
ENDBRANCH   1  10
TORSDOF 5
