REMARK  Name = Pentosan polysulfate
REMARK  16 active torsions:
REMARK  status: ('A' for Active; 'I' for Inactive)
REMARK    1  A    between atoms: O_1  and  C_2
REMARK    2  A    between atoms: C_5  and  O_6
REMARK    3  A    between atoms: O_6  and  C_7
REMARK    4  A    between atoms: C_10  and  O_11
REMARK    5  A    between atoms: C_12  and  O_13
REMARK    6  A    between atoms: O_13  and  S_14
REMARK    7  A    between atoms: S_14  and  O_15
REMARK    8  A    between atoms: C_18  and  O_19
REMARK    9  A    between atoms: O_19  and  S_20
REMARK   10  A    between atoms: S_20  and  O_21
REMARK   11  A    between atoms: C_24  and  O_25
REMARK   12  A    between atoms: O_25  and  S_26
REMARK   13  A    between atoms: S_26  and  O_27
REMARK   14  A    between atoms: C_30  and  O_31
REMARK   15  A    between atoms: O_31  and  S_32
REMARK   16  A    between atoms: S_32  and  O_33
REMARK                            x       y       z     vdW  Elec       q    Type
REMARK                         _______ _______ _______ _____ _____    ______ ____
ROOT
ATOM      1  O   UNL     1      -3.084   0.134  -0.087  0.00  0.00    +0.000 OA
ENDROOT
BRANCH   1   5
ATOM      2  C   UNL     1       1.072  -0.021  -0.321  0.00  0.00    +0.000 C 
ATOM      3  C   UNL     1       0.298   1.178   0.275  0.00  0.00    +0.000 C 
ATOM      4  O   UNL     1      -1.064   1.167  -0.044  0.00  0.00    +0.000 OA
ATOM      5  C   UNL     1      -1.722   0.003   0.370  0.00  0.00    +0.000 C 
ATOM      6  C   UNL     1      -1.041  -1.328  -0.082  0.00  0.00    +0.000 C 
ATOM      7  C   UNL     1       0.524  -1.419   0.152  0.00  0.00    +0.000 C 
BRANCH   2   8
ATOM      8  O   UNL     1       2.430   0.096   0.080  0.00  0.00    +0.000 OA
ATOM      9  H   UNL     1       2.778   0.943  -0.251  0.00  0.00    +0.000 HD
ENDBRANCH   2   8
BRANCH   6  10
ATOM     10  O   UNL     1      -1.849  -2.241   0.678  0.00  0.00    +0.000 OA
BRANCH  10  11
ATOM     11  S   UNL     1      -1.690  -3.770   0.267  0.00  0.00    +0.000 S 
ATOM     12  O   UNL     1      -0.374  -3.774   0.819  0.00  0.00    +0.000 OA
ATOM     13  O   UNL     1      -2.626  -4.722   0.787  0.00  0.00    +0.000 OA
BRANCH  11  14
ATOM     14  O   UNL     1      -1.842  -3.761  -1.378  0.00  0.00    +0.000 OA
ATOM     15  H   UNL     1      -1.047  -3.608  -1.945  0.00  0.00    +0.000 HD
ENDBRANCH  11  14
ENDBRANCH  10  11
ENDBRANCH   6  10
BRANCH   7  16
ATOM     16  O   UNL     1       1.484  -2.509  -0.347  0.00  0.00    +0.000 OA
BRANCH  16  17
ATOM     17  S   UNL     1       1.360  -4.070  -0.968  0.00  0.00    +0.000 S 
ATOM     18  O   UNL     1       0.317  -3.987  -1.977  0.00  0.00    +0.000 OA
ATOM     19  O   UNL     1       2.643  -4.575  -1.388  0.00  0.00    +0.000 OA
BRANCH  17  20
ATOM     20  O   UNL     1       0.934  -5.190   0.162  0.00  0.00    +0.000 OA
ATOM     21  H   UNL     1       0.477  -4.778   0.948  0.00  0.00    +0.000 HD
ENDBRANCH  17  20
ENDBRANCH  16  17
ENDBRANCH   7  16
ENDBRANCH   1   5
BRANCH   1  22
ATOM     22  C   UNL     1      -3.248   0.079  -1.501  0.00  0.00    +0.000 C 
ATOM     23  C   UNL     1      -2.629   1.256  -2.226  0.00  0.00    +0.000 C 
ATOM     24  O   UNL     1      -2.876   1.119  -3.614  0.00  0.00    +0.000 OA
ATOM     25  C   UNL     1      -4.262   1.198  -3.916  0.00  0.00    +0.000 C 
ATOM     26  C   UNL     1      -5.011  -0.030  -3.361  0.00  0.00    +0.000 C 
ATOM     27  C   UNL     1      -4.736  -0.119  -1.865  0.00  0.00    +0.000 C 
BRANCH  25  28
ATOM     28  O   UNL     1      -4.336   1.249  -5.324  0.00  0.00    +0.000 OA
ATOM     29  H   UNL     1      -3.878   0.461  -5.660  0.00  0.00    +0.000 HD
ENDBRANCH  25  28
BRANCH  27  30
ATOM     30  O   UNL     1      -5.319  -1.358  -1.481  0.00  0.00    +0.000 OA
BRANCH  30  31
ATOM     31  S   UNL     1      -4.548  -2.746  -1.475  0.00  0.00    +0.000 S 
ATOM     32  O   UNL     1      -3.553  -2.373  -0.512  0.00  0.00    +0.000 OA
ATOM     33  O   UNL     1      -5.352  -3.888  -1.307  0.00  0.00    +0.000 OA
BRANCH  31  34
ATOM     34  O   UNL     1      -3.886  -2.777  -2.957  0.00  0.00    +0.000 OA
ATOM     35  H   UNL     1      -3.059  -2.261  -3.034  0.00  0.00    +0.000 HD
ENDBRANCH  31  34
ENDBRANCH  30  31
ENDBRANCH  27  30
BRANCH  26  36
ATOM     36  O   UNL     1      -6.428   0.001  -3.586  0.00  0.00    +0.000 OA
BRANCH  36  37
ATOM     37  S   UNL     1      -7.434  -1.264  -3.243  0.00  0.00    +0.000 S 
ATOM     38  O   UNL     1      -7.512  -1.494  -1.818  0.00  0.00    +0.000 OA
ATOM     39  O   UNL     1      -8.671  -1.044  -3.950  0.00  0.00    +0.000 OA
BRANCH  37  40
ATOM     40  O   UNL     1      -6.711  -2.535  -3.941  0.00  0.00    +0.000 OA
ATOM     41  H   UNL     1      -5.807  -2.743  -3.641  0.00  0.00    +0.000 HD
ENDBRANCH  37  40
ENDBRANCH  36  37
ENDBRANCH  26  36
ENDBRANCH   1  22
TORSDOF 16
