REMARK  Name = Pentolinium
REMARK  8 active torsions:
REMARK  status: ('A' for Active; 'I' for Inactive)
REMARK    1  A    between atoms: C_1  and  N_2
REMARK    2  A    between atoms: N_2  and  C_3
REMARK    3  A    between atoms: C_3  and  C_4
REMARK    4  A    between atoms: C_4  and  C_5
REMARK    5  A    between atoms: C_5  and  C_6
REMARK    6  A    between atoms: C_6  and  C_7
REMARK    7  A    between atoms: C_7  and  N_8
REMARK    8  A    between atoms: N_8  and  C_9
REMARK                            x       y       z     vdW  Elec       q    Type
REMARK                         _______ _______ _______ _____ _____    ______ ____
ROOT
ATOM      1  C   UNL     1       4.666  -0.609   3.044  0.00  0.00    +0.000 C 
ENDROOT
BRANCH   1   2
ATOM      2  C   UNL     1       4.411  -0.327   1.567  0.00  0.00    +0.000 C 
BRANCH   2   3
ATOM      3  C   UNL     1       2.926  -0.279   1.287  0.00  0.00    +0.000 C 
BRANCH   3   5
ATOM      4  C   UNL     1       1.051  -0.002  -0.215  0.00  0.00    +0.000 C 
ATOM      5  N   UNL     1       2.591  -0.017  -0.173  0.00  0.00    +0.000 N 
ATOM      6  C   UNL     1       3.133   1.312  -0.719  0.00  0.00    +0.000 C 
ATOM      7  C   UNL     1       3.165   1.107  -2.218  0.00  0.00    +0.000 C 
ATOM      8  C   UNL     1       3.590  -0.336  -2.390  0.00  0.00    +0.000 C 
ATOM      9  C   UNL     1       3.115  -1.086  -1.152  0.00  0.00    +0.000 C 
ENDBRANCH   3   5
ENDBRANCH   2   3
ENDBRANCH   1   2
BRANCH   1  10
ATOM     10  C   UNL     1       6.171  -0.583   3.198  0.00  0.00    +0.000 C 
BRANCH  10  11
ATOM     11  C   UNL     1       6.629  -0.863   4.608  0.00  0.00    +0.000 C 
BRANCH  11  12
ATOM     12  N   UNL     1       8.158  -0.868   4.725  0.00  0.00    +0.000 N 
ATOM     13  C   UNL     1       8.430  -1.250   6.184  0.00  0.00    +0.000 C 
ATOM     14  C   UNL     1       8.806   0.485   4.387  0.00  0.00    +0.000 C 
ATOM     15  C   UNL     1       9.113   0.421   2.900  0.00  0.00    +0.000 C 
ATOM     16  C   UNL     1       9.438  -1.033   2.630  0.00  0.00    +0.000 C 
ATOM     17  C   UNL     1       8.850  -1.860   3.773  0.00  0.00    +0.000 C 
ENDBRANCH  11  12
ENDBRANCH  10  11
ENDBRANCH   1  10
TORSDOF 6
