REMARK  Name = Pentafluoropropane
REMARK  2 active torsions:
REMARK  status: ('A' for Active; 'I' for Inactive)
REMARK    1  A    between atoms: C_2  and  C_4
REMARK    2  A    between atoms: C_4  and  C_5
REMARK                            x       y       z     vdW  Elec       q    Type
REMARK                         _______ _______ _______ _____ _____    ______ ____
ROOT
ATOM      1  C   UNL     1       2.912   0.817  -1.088  0.00  0.00    +0.000 C 
ENDROOT
BRANCH   1   2
ATOM      2  C   UNL     1       4.408   0.824  -1.080  0.00  0.00    +0.000 C 
ATOM      3  F   UNL     1       4.884   1.329   0.078  0.00  0.00    +0.000 F 
ATOM      4  F   UNL     1       4.930  -0.405  -1.247  0.00  0.00    +0.000 F 
ATOM      5  F   UNL     1       4.876   1.603  -2.082  0.00  0.00    +0.000 F 
ENDBRANCH   1   2
BRANCH   1   7
ATOM      6  F   UNL     1       1.068   0.009   0.071  0.00  0.00    +0.000 F 
ATOM      7  C   UNL     1       2.428  -0.007   0.067  0.00  0.00    +0.000 C 
ATOM      8  F   UNL     1       2.788  -1.302  -0.093  0.00  0.00    +0.000 F 
ENDBRANCH   1   7
TORSDOF 2
