REMARK  Name = Pentazocine
REMARK  7 active torsions:
REMARK  status: ('A' for Active; 'I' for Inactive)
REMARK    1  A    between atoms: C_1  and  C_2
REMARK    2  A    between atoms: C_8  and  O_9
REMARK    3  A    between atoms: C_12  and  C_13
REMARK    4  A    between atoms: N_16  and  C_17
REMARK    5  A    between atoms: C_17  and  C_18
REMARK    6  A    between atoms: C_19  and  C_20
REMARK    7  A    between atoms: C_19  and  C_21
REMARK                            x       y       z     vdW  Elec       q    Type
REMARK                         _______ _______ _______ _____ _____    ______ ____
ROOT
ATOM      1  C   UNL     1       0.970  -0.461  -0.278  0.00  0.00    +0.000 C 
ATOM      2  C   UNL     1       2.284   0.264   0.254  0.00  0.00    +0.000 C 
ATOM      3  C   UNL     1       2.720   0.202   1.679  0.00  0.00    +0.000 C 
ATOM      4  C   UNL     1       4.176   0.879   1.841  0.00  0.00    +0.000 C 
ATOM      5  C   UNL     1       4.007   2.368   1.967  0.00  0.00    +0.000 A 
ATOM      6  C   UNL     1       3.017   2.952   1.159  0.00  0.00    +0.000 A 
ATOM      7  C   UNL     1       2.587   4.270   1.542  0.00  0.00    +0.000 A 
ATOM      8  C   UNL     1       3.183   4.933   2.645  0.00  0.00    +0.000 A 
ATOM      9  C   UNL     1       4.225   4.346   3.350  0.00  0.00    +0.000 A 
ATOM     10  C   UNL     1       4.648   3.072   3.000  0.00  0.00    +0.000 A 
ATOM     11  C   UNL     1       2.332   1.944   0.054  0.00  0.00    +0.000 C 
ATOM     12  C   UNL     1       3.338   1.844  -1.091  0.00  0.00    +0.000 C 
ATOM     13  C   UNL     1       0.829   2.204   0.221  0.00  0.00    +0.000 C 
ATOM     14  C   UNL     1       0.475   1.516   1.637  0.00  0.00    +0.000 C 
ATOM     15  N   UNL     1       1.664   0.972   2.370  0.00  0.00    +0.000 NA
ENDROOT
BRANCH   8  16
ATOM     16  O   UNL     1       2.795   6.159   3.123  0.00  0.00    +0.000 OA
ATOM     17  H   UNL     1       2.046   6.511   2.622  0.00  0.00    +0.000 HD
ENDBRANCH   8  16
BRANCH  15  18
ATOM     18  C   UNL     1       1.465   0.370   3.638  0.00  0.00    +0.000 C 
BRANCH  18  19
ATOM     19  C   UNL     1       0.544   1.162   4.447  0.00  0.00    +0.000 C 
ATOM     20  C   UNL     1       0.052   0.659   5.606  0.00  0.00    +0.000 C 
ATOM     21  C   UNL     1       0.569  -0.629   6.153  0.00  0.00    +0.000 C 
ATOM     22  C   UNL     1      -0.989   1.437   6.313  0.00  0.00    +0.000 C 
ENDBRANCH  18  19
ENDBRANCH  15  18
TORSDOF 3
