REMARK  Name = Pentoxyverine
REMARK  13 active torsions:
REMARK  status: ('A' for Active; 'I' for Inactive)
REMARK    1  A    between atoms: C_1  and  C_2
REMARK    2  A    between atoms: C_2  and  N_3
REMARK    3  A    between atoms: N_3  and  C_4
REMARK    4  A    between atoms: N_3  and  C_6
REMARK    5  A    between atoms: C_4  and  C_5
REMARK    6  A    between atoms: C_6  and  C_7
REMARK    7  A    between atoms: C_7  and  O_8
REMARK    8  A    between atoms: O_8  and  C_9
REMARK    9  A    between atoms: C_9  and  C_10
REMARK   10  A    between atoms: C_10  and  O_11
REMARK   11  A    between atoms: O_11  and  C_12
REMARK   12  A    between atoms: C_12  and  C_14
REMARK   13  A    between atoms: C_14  and  C_19
REMARK                            x       y       z     vdW  Elec       q    Type
REMARK                         _______ _______ _______ _____ _____    ______ ____
ROOT
ATOM      1  C   UNL     1      10.312  -1.014  -5.662  0.00  0.00    +0.000 C 
ATOM      2  O   UNL     1      11.038  -0.873  -4.691  0.00  0.00    +0.000 OA
ENDROOT
BRANCH   1   3
ATOM      3  C   UNL     1      10.814  -1.245  -7.120  0.00  0.00    +0.000 C 
ATOM      4  C   UNL     1      10.256  -2.567  -7.696  0.00  0.00    +0.000 C 
ATOM      5  C   UNL     1      10.397  -2.422  -9.212  0.00  0.00    +0.000 C 
ATOM      6  C   UNL     1      10.249  -0.930  -9.492  0.00  0.00    +0.000 C 
ATOM      7  C   UNL     1      10.213  -0.236  -8.126  0.00  0.00    +0.000 C 
BRANCH   3   8
ATOM      8  C   UNL     1      12.354  -1.165  -7.113  0.00  0.00    +0.000 A 
ATOM      9  C   UNL     1      13.176  -2.282  -7.332  0.00  0.00    +0.000 A 
ATOM     10  C   UNL     1      14.541  -2.232  -7.057  0.00  0.00    +0.000 A 
ATOM     11  C   UNL     1      15.126  -1.042  -6.641  0.00  0.00    +0.000 A 
ATOM     12  C   UNL     1      14.342   0.093  -6.466  0.00  0.00    +0.000 A 
ATOM     13  C   UNL     1      12.970   0.034  -6.703  0.00  0.00    +0.000 A 
ENDBRANCH   3   8
ENDBRANCH   1   3
BRANCH   1  14
ATOM     14  O   UNL     1       8.950  -0.969  -5.565  0.00  0.00    +0.000 OA
BRANCH  14  15
ATOM     15  C   UNL     1       8.504  -0.735  -4.215  0.00  0.00    +0.000 C 
BRANCH  15  16
ATOM     16  C   UNL     1       6.989  -0.737  -4.186  0.00  0.00    +0.000 C 
BRANCH  16  17
ATOM     17  O   UNL     1       6.520  -0.537  -2.849  0.00  0.00    +0.000 OA
BRANCH  17  18
ATOM     18  C   UNL     1       5.091  -0.514  -2.855  0.00  0.00    +0.000 C 
BRANCH  18  19
ATOM     19  C   UNL     1       4.517  -0.232  -1.458  0.00  0.00    +0.000 C 
BRANCH  19  20
ATOM     20  N   UNL     1       3.022  -0.189  -1.431  0.00  0.00    +0.000 NA
BRANCH  20  22
ATOM     21  C   UNL     1       1.087  -0.129   0.218  0.00  0.00    +0.000 C 
ATOM     22  C   UNL     1       2.588  -0.008  -0.028  0.00  0.00    +0.000 C 
ENDBRANCH  20  22
BRANCH  20  23
ATOM     23  C   UNL     1       2.537   0.869  -2.341  0.00  0.00    +0.000 C 
ATOM     24  C   UNL     1       1.039   0.923  -2.595  0.00  0.00    +0.000 C 
ENDBRANCH  20  23
ENDBRANCH  19  20
ENDBRANCH  18  19
ENDBRANCH  17  18
ENDBRANCH  16  17
ENDBRANCH  15  16
ENDBRANCH  14  15
ENDBRANCH   1  14
TORSDOF 11
