REMARK  Name = Pentostatin
REMARK  5 active torsions:
REMARK  status: ('A' for Active; 'I' for Inactive)
REMARK    1  A    between atoms: O5*_1  and  C5*_2
REMARK    2  A    between atoms: C5*_2  and  C4*_3
REMARK    3  A    between atoms: C1*_5  and  N_9
REMARK    4  A    between atoms: C3*_7  and  O3*_8
REMARK    5  A    between atoms: C_18  and  O_19
REMARK                            x       y       z     vdW  Elec       q    Type
REMARK                         _______ _______ _______ _____ _____    ______ ____
ROOT
ATOM      1  N   UNL     1       1.497   4.432  -1.263  0.00  0.00    +0.000 N 
ATOM      2  C   UNL     1       0.157   4.182  -1.156  0.00  0.00    +0.000 A 
ATOM      3  N   UNL     1      -0.566   5.151  -1.673  0.00  0.00    +0.000 NA
ATOM      4  C   UNL     1       0.353   6.057  -2.165  0.00  0.00    +0.000 A 
ATOM      5  C   UNL     1       1.649   5.641  -1.899  0.00  0.00    +0.000 A 
ATOM      6  N   UNL     1       2.867   6.201  -2.157  0.00  0.00    +0.000 NA
ATOM      7  C   UNL     1       2.915   7.480  -2.032  0.00  0.00    +0.000 C 
ATOM      8  N   UNL     1       1.906   8.357  -1.706  0.00  0.00    +0.000 N 
ATOM      9  C   UNL     1       0.790   8.550  -2.635  0.00  0.00    +0.000 C 
ATOM     10  C   UNL     1      -0.046   7.277  -2.939  0.00  0.00    +0.000 C 
ATOM     11  H   UNL     1       2.168   9.193  -1.200  0.00  0.00    +0.000 HD
ENDROOT
BRANCH   1  14
ATOM     12  C4* UNL     1       3.125   1.361  -0.386  0.00  0.00    +0.000 C 
ATOM     13  O4* UNL     1       2.423   2.243  -1.287  0.00  0.00    +0.000 OA
ATOM     14  C1* UNL     1       2.555   3.586  -0.757  0.00  0.00    +0.000 C 
ATOM     15  C2* UNL     1       2.566   3.413   0.751  0.00  0.00    +0.000 C 
ATOM     16  C3* UNL     1       3.376   2.148   0.904  0.00  0.00    +0.000 C 
BRANCH  16  17
ATOM     17  O3* UNL     1       4.766   2.472   1.016  0.00  0.00    +0.000 OA
ATOM     18  H3* UNL     1       5.069   2.874   0.182  0.00  0.00    +0.000 HD
ENDBRANCH  16  17
BRANCH  12  19
ATOM     19  C5* UNL     1       2.437   0.012  -0.117  0.00  0.00    +0.000 C 
BRANCH  19  20
ATOM     20  O5* UNL     1       1.027   0.099   0.015  0.00  0.00    +0.000 OA
ATOM     21  H5* UNL     1       0.706  -0.818   0.111  0.00  0.00    +0.000 HD
ENDBRANCH  19  20
ENDBRANCH  12  19
ENDBRANCH   1  14
BRANCH  10  22
ATOM     22  O   UNL     1       0.064   7.027  -4.355  0.00  0.00    +0.000 OA
ATOM     23  H   UNL     1       0.984   6.733  -4.491  0.00  0.00    +0.000 HD
ENDBRANCH  10  22
TORSDOF 5
