REMARK  Name = Pentoxifylline
REMARK  8 active torsions:
REMARK  status: ('A' for Active; 'I' for Inactive)
REMARK    1  A    between atoms: C_1  and  N_2
REMARK    2  A    between atoms: N_9  and  C_10
REMARK    3  A    between atoms: C_10  and  C_11
REMARK    4  A    between atoms: C_11  and  C_12
REMARK    5  A    between atoms: C_12  and  C_13
REMARK    6  A    between atoms: C_13  and  C_14
REMARK    7  A    between atoms: C_14  and  C_15
REMARK    8  A    between atoms: N_19  and  C_20
REMARK                            x       y       z     vdW  Elec       q    Type
REMARK                         _______ _______ _______ _____ _____    ______ ____
ROOT
ATOM      1  C   UNL     1       0.958  -0.072  -0.018  0.00  0.00    +0.000 C 
ATOM      2  N   UNL     1       2.399  -0.079  -0.018  0.00  0.00    +0.000 N 
ATOM      3  C   UNL     1       3.211   1.025  -0.016  0.00  0.00    +0.000 A 
ATOM      4  N   UNL     1       4.487   0.696  -0.016  0.00  0.00    +0.000 NA
ATOM      5  C   UNL     1       4.480  -0.661  -0.017  0.00  0.00    +0.000 A 
ATOM      6  C   UNL     1       3.215  -1.175  -0.018  0.00  0.00    +0.000 A 
ATOM      7  C   UNL     1       2.947  -2.572  -0.018  0.00  0.00    +0.000 A 
ATOM      8  O   UNL     1       1.801  -3.035  -0.022  0.00  0.00    +0.000 OA
ATOM      9  N   UNL     1       4.108  -3.359  -0.013  0.00  0.00    +0.000 N 
ATOM     10  C   UNL     1       5.415  -2.836  -0.021  0.00  0.00    +0.000 A 
ATOM     11  O   UNL     1       6.436  -3.525  -0.032  0.00  0.00    +0.000 OA
ATOM     12  N   UNL     1       5.580  -1.470  -0.017  0.00  0.00    +0.000 N 
ATOM     13  C   UNL     1       6.936  -0.959  -0.017  0.00  0.00    +0.000 C 
ENDROOT
BRANCH   9  14
ATOM     14  C   UNL     1       3.905  -4.812  -0.002  0.00  0.00    +0.000 C 
BRANCH  14  15
ATOM     15  C   UNL     1       5.190  -5.627   0.005  0.00  0.00    +0.000 C 
BRANCH  15  16
ATOM     16  C   UNL     1       5.000  -7.105   0.019  0.00  0.00    +0.000 C 
BRANCH  16  17
ATOM     17  C   UNL     1       6.356  -7.800   0.024  0.00  0.00    +0.000 C 
BRANCH  17  18
ATOM     18  C   UNL     1       6.228  -9.304   0.037  0.00  0.00    +0.000 C 
ATOM     19  C   UNL     1       4.859  -9.944   0.043  0.00  0.00    +0.000 C 
ATOM     20  O   UNL     1       7.240 -10.009   0.042  0.00  0.00    +0.000 OA
ENDBRANCH  17  18
ENDBRANCH  16  17
ENDBRANCH  15  16
ENDBRANCH  14  15
ENDBRANCH   9  14
TORSDOF 5
