REMARK  Name = Pentobarbital
REMARK  7 active torsions:
REMARK  status: ('A' for Active; 'I' for Inactive)
REMARK    1  A    between atoms: C_1  and  C_2
REMARK    2  A    between atoms: C_2  and  C_3
REMARK    3  A    between atoms: C_3  and  C_4
REMARK    4  A    between atoms: C_4  and  C_5
REMARK    5  A    between atoms: C_4  and  C_6
REMARK    6  A    between atoms: C_6  and  C_7
REMARK    7  A    between atoms: C_7  and  C_8
REMARK                            x       y       z     vdW  Elec       q    Type
REMARK                         _______ _______ _______ _____ _____    ______ ____
ROOT
ATOM      1  C   UNL     1       5.055   3.014   0.321  0.00  0.00    +0.000 C 
ATOM      2  C   UNL     1       4.156   4.276   0.222  0.00  0.00    +0.000 C 
ATOM      3  O   UNL     1       3.142   4.467   0.895  0.00  0.00    +0.000 OA
ATOM      4  N   UNL     1       4.741   5.336  -0.430  0.00  0.00    +0.000 N 
ATOM      5  C   UNL     1       5.471   5.177  -1.563  0.00  0.00    +0.000 C 
ATOM      6  O   UNL     1       5.789   6.117  -2.274  0.00  0.00    +0.000 OA
ATOM      7  N   UNL     1       5.841   3.901  -1.829  0.00  0.00    +0.000 N 
ATOM      8  C   UNL     1       6.157   3.113  -0.756  0.00  0.00    +0.000 C 
ATOM      9  O   UNL     1       7.183   2.431  -0.787  0.00  0.00    +0.000 OA
ATOM     10  H   UNL     1       4.388   6.266  -0.250  0.00  0.00    +0.000 HD
ATOM     11  H   UNL     1       6.483   3.841  -2.609  0.00  0.00    +0.000 HD
ENDROOT
BRANCH   1  12
ATOM     12  C   UNL     1       4.443   1.541   0.147  0.00  0.00    +0.000 C 
ATOM     13  C   UNL     1       4.925   0.747  -1.104  0.00  0.00    +0.000 C 
BRANCH  12  14
ATOM     14  C   UNL     1       2.917   1.512   0.200  0.00  0.00    +0.000 C 
BRANCH  14  16
ATOM     15  C   UNL     1       0.866   0.080   0.082  0.00  0.00    +0.000 C 
ATOM     16  C   UNL     1       2.371   0.087   0.079  0.00  0.00    +0.000 C 
ENDBRANCH  14  16
ENDBRANCH  12  14
ENDBRANCH   1  12
BRANCH   1  17
ATOM     17  C   UNL     1       5.444   3.145   1.844  0.00  0.00    +0.000 C 
ATOM     18  C   UNL     1       5.984   4.511   2.297  0.00  0.00    +0.000 C 
ENDBRANCH   1  17
TORSDOF 4
