REMARK  Name = Pentetic acid
REMARK  21 active torsions:
REMARK  status: ('A' for Active; 'I' for Inactive)
REMARK    1  A    between atoms: O_1  and  C_2
REMARK    2  A    between atoms: C_2  and  C_4
REMARK    3  A    between atoms: C_4  and  N_5
REMARK    4  A    between atoms: N_5  and  C_6
REMARK    5  A    between atoms: N_5  and  C_17
REMARK    6  A    between atoms: C_6  and  C_7
REMARK    7  A    between atoms: C_7  and  N_8
REMARK    8  A    between atoms: N_8  and  C_9
REMARK    9  A    between atoms: N_8  and  C_13
REMARK   10  A    between atoms: C_9  and  C_10
REMARK   11  A    between atoms: C_10  and  O_11
REMARK   12  A    between atoms: C_13  and  C_14
REMARK   13  A    between atoms: C_14  and  O_15
REMARK   14  A    between atoms: C_17  and  C_18
REMARK   15  A    between atoms: C_18  and  N_19
REMARK   16  A    between atoms: N_19  and  C_20
REMARK   17  A    between atoms: N_19  and  C_24
REMARK   18  A    between atoms: C_20  and  C_21
REMARK   19  A    between atoms: C_21  and  O_22
REMARK   20  A    between atoms: C_24  and  C_25
REMARK   21  A    between atoms: C_25  and  O_26
REMARK                            x       y       z     vdW  Elec       q    Type
REMARK                         _______ _______ _______ _____ _____    ______ ____
ROOT
ATOM      1  N   UNL     1       4.419  -0.761   0.461  0.00  0.00    +0.000 NA
ENDROOT
BRANCH   1   2
ATOM      2  C   UNL     1       5.230  -1.693   1.246  0.00  0.00    +0.000 C 
BRANCH   2   3
ATOM      3  C   UNL     1       6.796  -1.623   1.264  0.00  0.00    +0.000 C 
BRANCH   3   4
ATOM      4  N   UNL     1       7.427  -2.704   2.127  0.00  0.00    +0.000 NA
BRANCH   4   5
ATOM      5  C   UNL     1       7.083  -4.041   1.535  0.00  0.00    +0.000 C 
BRANCH   5   6
ATOM      6  C   UNL     1       5.666  -4.520   1.896  0.00  0.00    +0.000 C 
ATOM      7  O   UNL     1       5.104  -5.436   1.341  0.00  0.00    +0.000 OA
BRANCH   6   8
ATOM      8  O   UNL     1       5.088  -3.827   2.918  0.00  0.00    +0.000 OA
ATOM      9  H   UNL     1       5.671  -3.091   3.203  0.00  0.00    +0.000 HD
ENDBRANCH   6   8
ENDBRANCH   5   6
ENDBRANCH   4   5
BRANCH   4  10
ATOM     10  C   UNL     1       8.925  -2.467   2.001  0.00  0.00    +0.000 C 
BRANCH  10  11
ATOM     11  C   UNL     1       9.820  -3.417   2.803  0.00  0.00    +0.000 C 
ATOM     12  O   UNL     1      11.039  -3.420   2.698  0.00  0.00    +0.000 OA
BRANCH  11  13
ATOM     13  O   UNL     1       9.190  -4.256   3.653  0.00  0.00    +0.000 OA
ATOM     14  H   UNL     1       8.233  -4.082   3.702  0.00  0.00    +0.000 HD
ENDBRANCH  11  13
ENDBRANCH  10  11
ENDBRANCH   4  10
ENDBRANCH   3   4
ENDBRANCH   2   3
ENDBRANCH   1   2
BRANCH   1  15
ATOM     15  C   UNL     1       4.762   0.531   1.006  0.00  0.00    +0.000 C 
BRANCH  15  16
ATOM     16  C   UNL     1       4.170   1.782   0.421  0.00  0.00    +0.000 C 
BRANCH  16  17
ATOM     17  N   UNL     1       4.691   3.051   1.012  0.00  0.00    +0.000 NA
BRANCH  17  18
ATOM     18  C   UNL     1       6.161   3.161   0.703  0.00  0.00    +0.000 C 
BRANCH  18  19
ATOM     19  C   UNL     1       7.047   2.327   1.651  0.00  0.00    +0.000 C 
ATOM     20  O   UNL     1       8.221   2.101   1.454  0.00  0.00    +0.000 OA
BRANCH  19  21
ATOM     21  O   UNL     1       6.399   1.844   2.747  0.00  0.00    +0.000 OA
ATOM     22  H   UNL     1       5.450   2.089   2.720  0.00  0.00    +0.000 HD
ENDBRANCH  19  21
ENDBRANCH  18  19
ENDBRANCH  17  18
BRANCH  17  23
ATOM     23  C   UNL     1       3.906   4.063   0.198  0.00  0.00    +0.000 C 
BRANCH  23  24
ATOM     24  C   UNL     1       4.118   5.502   0.615  0.00  0.00    +0.000 C 
ATOM     25  O   UNL     1       3.633   6.444   0.010  0.00  0.00    +0.000 OA
BRANCH  24  26
ATOM     26  O   UNL     1       4.865   5.665   1.730  0.00  0.00    +0.000 OA
ATOM     27  H   UNL     1       5.085   4.800   2.126  0.00  0.00    +0.000 HD
ENDBRANCH  24  26
ENDBRANCH  23  24
ENDBRANCH  17  23
ENDBRANCH  16  17
ENDBRANCH  15  16
ENDBRANCH   1  15
BRANCH   1  28
ATOM     28  C   UNL     1       2.967  -1.054   0.673  0.00  0.00    +0.000 C 
BRANCH  28  29
ATOM     29  C   UNL     1       2.093  -0.204  -0.266  0.00  0.00    +0.000 C 
ATOM     30  O   UNL     1       2.498   0.404  -1.248  0.00  0.00    +0.000 OA
BRANCH  29  31
ATOM     31  O   UNL     1       0.800  -0.102   0.112  0.00  0.00    +0.000 OA
ATOM     32  H   UNL     1       0.512  -0.734   0.793  0.00  0.00    +0.000 HD
ENDBRANCH  29  31
ENDBRANCH  28  29
ENDBRANCH   1  28
TORSDOF 21
