REMARK  Name = Pentamidine
REMARK  10 active torsions:
REMARK  status: ('A' for Active; 'I' for Inactive)
REMARK    1  A    between atoms: C_2  and  C_4
REMARK    2  A    between atoms: C_7  and  O_8
REMARK    3  A    between atoms: O_8  and  C_9
REMARK    4  A    between atoms: C_9  and  C_10
REMARK    5  A    between atoms: C_10  and  C_11
REMARK    6  A    between atoms: C_11  and  C_12
REMARK    7  A    between atoms: C_12  and  C_13
REMARK    8  A    between atoms: C_13  and  O_14
REMARK    9  A    between atoms: O_14  and  C_15
REMARK   10  A    between atoms: C_18  and  C_21
REMARK                            x       y       z     vdW  Elec       q    Type
REMARK                         _______ _______ _______ _____ _____    ______ ____
ROOT
ATOM      1  C   UNL     1       5.147   4.647  -7.216  0.00  0.00    +0.000 C 
ENDROOT
BRANCH   1   2
ATOM      2  C   UNL     1       5.657   3.402  -6.487  0.00  0.00    +0.000 C 
BRANCH   2   3
ATOM      3  C   UNL     1       4.835   3.136  -5.228  0.00  0.00    +0.000 C 
BRANCH   3   4
ATOM      4  O   UNL     1       5.363   2.002  -4.532  0.00  0.00    +0.000 OA
BRANCH   4   8
ATOM      5  C   UNL     1       3.261   0.513  -1.242  0.00  0.00    +0.000 A 
ATOM      6  C   UNL     1       4.382  -0.149  -1.750  0.00  0.00    +0.000 A 
ATOM      7  C   UNL     1       5.083   0.401  -2.832  0.00  0.00    +0.000 A 
ATOM      8  C   UNL     1       4.645   1.585  -3.438  0.00  0.00    +0.000 A 
ATOM      9  C   UNL     1       3.534   2.246  -2.909  0.00  0.00    +0.000 A 
ATOM     10  C   UNL     1       2.844   1.713  -1.819  0.00  0.00    +0.000 A 
BRANCH   5  12
ATOM     11  N   UNL     1       1.188   0.140   0.042  0.00  0.00    +0.000 N 
ATOM     12  C   UNL     1       2.544   0.018  -0.036  0.00  0.00    +0.000 C 
ATOM     13  N   UNL     1       3.230  -0.481   0.937  0.00  0.00    +0.000 NA
ATOM     14  H   UNL     1       0.684  -0.335   0.778  0.00  0.00    +0.000 HD
ATOM     15  H   UNL     1       0.660   0.287  -0.812  0.00  0.00    +0.000 HD
ATOM     16  H   UNL     1       2.611  -0.710   1.716  0.00  0.00    +0.000 HD
ENDBRANCH   5  12
ENDBRANCH   4   8
ENDBRANCH   3   4
ENDBRANCH   2   3
ENDBRANCH   1   2
BRANCH   1  17
ATOM     17  C   UNL     1       5.960   4.943  -8.474  0.00  0.00    +0.000 C 
BRANCH  17  18
ATOM     18  C   UNL     1       5.451   6.197  -9.187  0.00  0.00    +0.000 C 
BRANCH  18  19
ATOM     19  O   UNL     1       6.240   6.376 -10.363  0.00  0.00    +0.000 OA
BRANCH  19  20
ATOM     20  C   UNL     1       5.902   7.454 -11.132  0.00  0.00    +0.000 A 
ATOM     21  C   UNL     1       5.897   7.237 -12.506  0.00  0.00    +0.000 A 
ATOM     22  C   UNL     1       5.667   8.295 -13.391  0.00  0.00    +0.000 A 
ATOM     23  C   UNL     1       5.379   9.579 -12.913  0.00  0.00    +0.000 A 
ATOM     24  C   UNL     1       5.419   9.797 -11.527  0.00  0.00    +0.000 A 
ATOM     25  C   UNL     1       5.687   8.740 -10.642  0.00  0.00    +0.000 A 
BRANCH  23  26
ATOM     26  C   UNL     1       4.999  10.669 -13.880  0.00  0.00    +0.000 C 
ATOM     27  N   UNL     1       4.979  10.449 -15.224  0.00  0.00    +0.000 N 
ATOM     28  N   UNL     1       4.650  11.862 -13.525  0.00  0.00    +0.000 NA
ATOM     29  H   UNL     1       5.066   9.545 -15.656  0.00  0.00    +0.000 HD
ATOM     30  H   UNL     1       4.580  11.192 -15.785  0.00  0.00    +0.000 HD
ATOM     31  H   UNL     1       4.672  11.999 -12.515  0.00  0.00    +0.000 HD
ENDBRANCH  23  26
ENDBRANCH  19  20
ENDBRANCH  18  19
ENDBRANCH  17  18
ENDBRANCH   1  17
TORSDOF 10
