REMARK  Name = Pentaerythritol tetranitrate
REMARK  12 active torsions:
REMARK  status: ('A' for Active; 'I' for Inactive)
REMARK    1  A    between atoms: N_2  and  O_4
REMARK    2  A    between atoms: O_4  and  C_5
REMARK    3  A    between atoms: C_5  and  C_6
REMARK    4  A    between atoms: C_6  and  C_7
REMARK    5  A    between atoms: C_6  and  C_12
REMARK    6  A    between atoms: C_6  and  C_17
REMARK    7  A    between atoms: C_7  and  O_8
REMARK    8  A    between atoms: O_8  and  N_9
REMARK    9  A    between atoms: C_12  and  O_13
REMARK   10  A    between atoms: O_13  and  N_14
REMARK   11  A    between atoms: C_17  and  O_18
REMARK   12  A    between atoms: O_18  and  N_19
REMARK                            x       y       z     vdW  Elec       q    Type
REMARK                         _______ _______ _______ _____ _____    ______ ____
ROOT
ATOM      1  C   UNL     1       4.974   0.311   2.505  0.00  0.00    +0.000 C 
ENDROOT
BRANCH   1   2
ATOM      2  C   UNL     1       4.441   0.145   1.045  0.00  0.00    +0.000 C 
BRANCH   2   3
ATOM      3  O   UNL     1       3.014   0.206   1.078  0.00  0.00    +0.000 OA
BRANCH   3   5
ATOM      4  O   UNL     1       1.159   0.008  -0.080  0.00  0.00    +0.000 OA
ATOM      5  N   UNL     1       2.385   0.005  -0.168  0.00  0.00    +0.000 N 
ATOM      6  O   UNL     1       3.118  -0.137  -1.144  0.00  0.00    +0.000 OA
ENDBRANCH   3   5
ENDBRANCH   2   3
ENDBRANCH   1   2
BRANCH   1   7
ATOM      7  C   UNL     1       4.470   1.672   3.074  0.00  0.00    +0.000 C 
BRANCH   7   8
ATOM      8  O   UNL     1       4.979   2.716   2.242  0.00  0.00    +0.000 OA
BRANCH   8   9
ATOM      9  N   UNL     1       4.580   4.011   2.649  0.00  0.00    +0.000 N 
ATOM     10  O   UNL     1       3.872   4.089   3.653  0.00  0.00    +0.000 OA
ATOM     11  O   UNL     1       5.023   4.889   1.915  0.00  0.00    +0.000 OA
ENDBRANCH   8   9
ENDBRANCH   7   8
ENDBRANCH   1   7
BRANCH   1  12
ATOM     12  C   UNL     1       4.437  -0.851   3.399  0.00  0.00    +0.000 C 
BRANCH  12  13
ATOM     13  O   UNL     1       3.012  -0.806   3.420  0.00  0.00    +0.000 OA
BRANCH  13  14
ATOM     14  N   UNL     1       2.407  -1.862   4.134  0.00  0.00    +0.000 N 
ATOM     15  O   UNL     1       3.160  -2.659   4.694  0.00  0.00    +0.000 OA
ATOM     16  O   UNL     1       1.182  -1.819   4.088  0.00  0.00    +0.000 OA
ENDBRANCH  13  14
ENDBRANCH  12  13
ENDBRANCH   1  12
BRANCH   1  17
ATOM     17  C   UNL     1       6.531   0.295   2.515  0.00  0.00    +0.000 C 
BRANCH  17  18
ATOM     18  O   UNL     1       6.967   0.458   3.868  0.00  0.00    +0.000 OA
BRANCH  18  19
ATOM     19  N   UNL     1       8.376   0.483   4.019  0.00  0.00    +0.000 N 
ATOM     20  O   UNL     1       9.049   0.360   2.997  0.00  0.00    +0.000 OA
ATOM     21  O   UNL     1       8.720   0.623   5.189  0.00  0.00    +0.000 OA
ENDBRANCH  18  19
ENDBRANCH  17  18
ENDBRANCH   1  17
TORSDOF 12
