REMARK  Name = Perampanel
REMARK  4 active torsions:
REMARK  status: ('A' for Active; 'I' for Inactive)
REMARK    1  A    between atoms: N_3  and  C_22
REMARK    2  A    between atoms: C_5  and  C_16
REMARK    3  A    between atoms: C_7  and  C_8
REMARK    4  A    between atoms: C_13  and  C_14
REMARK                            x       y       z     vdW  Elec       q    Type
REMARK                         _______ _______ _______ _____ _____    ______ ____
ROOT
ATOM      1  O   UNL     1       0.937  -0.061  -0.048  0.00  0.00    +0.000 OA
ATOM      2  C   UNL     1       2.167  -0.002  -0.063  0.00  0.00    +0.000 A 
ATOM      3  N   UNL     1       2.915   1.188  -0.054  0.00  0.00    +0.000 N 
ATOM      4  C   UNL     1       4.300   1.187  -0.111  0.00  0.00    +0.000 A 
ATOM      5  C   UNL     1       5.022   0.054  -0.131  0.00  0.00    +0.000 A 
ATOM      6  C   UNL     1       4.308  -1.212  -0.143  0.00  0.00    +0.000 A 
ATOM      7  C   UNL     1       2.964  -1.281  -0.125  0.00  0.00    +0.000 A 
ENDROOT
BRANCH   7   8
ATOM      8  C   UNL     1       2.257  -2.581  -0.101  0.00  0.00    +0.000 A 
ATOM      9  C   UNL     1       1.327  -2.878  -1.116  0.00  0.00    +0.000 A 
ATOM     10  C   UNL     1       0.486  -3.986  -1.010  0.00  0.00    +0.000 A 
ATOM     11  C   UNL     1       0.666  -4.892   0.030  0.00  0.00    +0.000 A 
ATOM     12  C   UNL     1       1.682  -4.686   0.965  0.00  0.00    +0.000 A 
ATOM     13  C   UNL     1       2.421  -3.496   0.955  0.00  0.00    +0.000 A 
BRANCH  13  14
ATOM     14  C   UNL     1       3.292  -3.207   2.056  0.00  0.00    +0.000 C 
ATOM     15  N   UNL     1       4.005  -2.932   2.939  0.00  0.00    +0.000 NA
ENDBRANCH  13  14
ENDBRANCH   7   8
BRANCH   5  16
ATOM     16  C   UNL     1       6.499   0.145  -0.070  0.00  0.00    +0.000 A 
ATOM     17  N   UNL     1       7.191  -0.406  -1.095  0.00  0.00    +0.000 NA
ATOM     18  C   UNL     1       8.541  -0.419  -0.986  0.00  0.00    +0.000 A 
ATOM     19  C   UNL     1       9.231  -0.015   0.144  0.00  0.00    +0.000 A 
ATOM     20  C   UNL     1       8.506   0.562   1.176  0.00  0.00    +0.000 A 
ATOM     21  C   UNL     1       7.128   0.703   1.042  0.00  0.00    +0.000 A 
ENDBRANCH   5  16
BRANCH   3  22
ATOM     22  C   UNL     1       2.194   2.416  -0.026  0.00  0.00    +0.000 A 
ATOM     23  C   UNL     1       1.257   2.661   0.984  0.00  0.00    +0.000 A 
ATOM     24  C   UNL     1       0.406   3.761   0.896  0.00  0.00    +0.000 A 
ATOM     25  C   UNL     1       0.573   4.684  -0.134  0.00  0.00    +0.000 A 
ATOM     26  C   UNL     1       1.605   4.520  -1.058  0.00  0.00    +0.000 A 
ATOM     27  C   UNL     1       2.382   3.362  -1.038  0.00  0.00    +0.000 A 
ENDBRANCH   3  22
TORSDOF 4
