REMARK  Name = Peramivir
REMARK  12 active torsions:
REMARK  status: ('A' for Active; 'I' for Inactive)
REMARK    1  A    between atoms: C_2  and  C_3
REMARK    2  A    between atoms: C_3  and  N_4
REMARK    3  A    between atoms: C_3  and  C_8
REMARK    4  A    between atoms: C_5  and  C_6
REMARK    5  A    between atoms: C_8  and  C_9
REMARK    6  A    between atoms: C_8  and  C_11
REMARK    7  A    between atoms: C_9  and  C_10
REMARK    8  A    between atoms: C_11  and  C_12
REMARK    9  A    between atoms: C_13  and  O_14
REMARK   10  A    between atoms: C_15  and  C_22
REMARK   11  A    between atoms: C_17  and  N_18
REMARK   12  A    between atoms: C_22  and  O_23
REMARK                            x       y       z     vdW  Elec       q    Type
REMARK                         _______ _______ _______ _____ _____    ______ ____
ROOT
ATOM      1  C   UNL     1       2.102  -0.066   0.000  0.00  0.00    +0.000 C 
ATOM      2  C   UNL     1       2.918  -0.795  -1.147  0.00  0.00    +0.000 C 
ATOM      3  C   UNL     1       2.741  -2.278  -0.816  0.00  0.00    +0.000 C 
ATOM      4  C   UNL     1       2.819  -2.196   0.698  0.00  0.00    +0.000 C 
ATOM      5  C   UNL     1       2.691  -0.790   1.242  0.00  0.00    +0.000 C 
ENDROOT
BRANCH   5   6
ATOM      6  N   UNL     1       3.994  -0.285   1.717  0.00  0.00    +0.000 N 
ATOM      7  C   UNL     1       5.138  -0.960   2.048  0.00  0.00    +0.000 C 
ATOM      8  N   UNL     1       5.197  -2.305   1.976  0.00  0.00    +0.000 N 
ATOM      9  N   UNL     1       6.242  -0.379   2.355  0.00  0.00    +0.000 NA
ATOM     10  H   UNL     1       3.984   0.697   1.980  0.00  0.00    +0.000 HD
ATOM     11  H   UNL     1       4.453  -2.856   2.386  0.00  0.00    +0.000 HD
ATOM     12  H   UNL     1       6.119  -2.717   1.988  0.00  0.00    +0.000 HD
ATOM     13  H   UNL     1       6.114   0.630   2.362  0.00  0.00    +0.000 HD
ENDBRANCH   5   6
BRANCH   2  14
ATOM     14  O   UNL     1       2.799  -0.247  -2.442  0.00  0.00    +0.000 OA
ATOM     15  H   UNL     1       2.087  -0.571  -3.007  0.00  0.00    +0.000 HD
ENDBRANCH   2  14
BRANCH   3  16
ATOM     16  C   UNL     1       3.592  -3.370  -1.428  0.00  0.00    +0.000 C 
ATOM     17  O   UNL     1       3.410  -3.714  -2.610  0.00  0.00    +0.000 OA
BRANCH  16  18
ATOM     18  O   UNL     1       4.394  -4.104  -0.639  0.00  0.00    +0.000 OA
ATOM     19  H   UNL     1       4.536  -3.836   0.289  0.00  0.00    +0.000 HD
ENDBRANCH  16  18
ENDBRANCH   3  16
BRANCH   1  20
ATOM     20  C   UNL     1       0.467  -0.069   0.088  0.00  0.00    +0.000 C 
BRANCH  20  21
ATOM     21  N   UNL     1      -0.039  -0.026   1.478  0.00  0.00    +0.000 N 
ATOM     22  C   UNL     1       0.246   0.850   2.483  0.00  0.00    +0.000 C 
ATOM     23  C   UNL     1       1.125   2.035   2.200  0.00  0.00    +0.000 C 
ATOM     24  O   UNL     1      -0.158   0.604   3.620  0.00  0.00    +0.000 OA
ATOM     25  H   UNL     1      -0.612  -0.798   1.809  0.00  0.00    +0.000 HD
ENDBRANCH  20  21
BRANCH  20  26
ATOM     26  C   UNL     1      -0.381  -1.156  -0.694  0.00  0.00    +0.000 C 
BRANCH  26  27
ATOM     27  C   UNL     1      -0.072  -1.093  -2.194  0.00  0.00    +0.000 C 
ATOM     28  C   UNL     1      -0.206   0.295  -2.803  0.00  0.00    +0.000 C 
ENDBRANCH  26  27
BRANCH  26  29
ATOM     29  C   UNL     1      -0.209  -2.566  -0.071  0.00  0.00    +0.000 C 
ATOM     30  C   UNL     1      -0.313  -3.752  -1.022  0.00  0.00    +0.000 C 
ENDBRANCH  26  29
ENDBRANCH  20  26
ENDBRANCH   1  20
TORSDOF 9
