REMARK  Name = Perazine
REMARK  5 active torsions:
REMARK  status: ('A' for Active; 'I' for Inactive)
REMARK    1  A    between atoms: C_1  and  N_2
REMARK    2  A    between atoms: N_5  and  C_6
REMARK    3  A    between atoms: C_6  and  C_7
REMARK    4  A    between atoms: C_7  and  C_8
REMARK    5  A    between atoms: C_8  and  N_9
REMARK                            x       y       z     vdW  Elec       q    Type
REMARK                         _______ _______ _______ _____ _____    ______ ____
ROOT
ATOM      1  N   UNL     1      -3.964  -2.501   3.821  0.00  0.00    +0.000 N 
ATOM      2  C   UNL     1      -4.216  -2.760   5.189  0.00  0.00    +0.000 A 
ATOM      3  C   UNL     1      -4.426  -1.715   6.103  0.00  0.00    +0.000 A 
ATOM      4  C   UNL     1      -4.890  -1.970   7.393  0.00  0.00    +0.000 A 
ATOM      5  C   UNL     1      -5.120  -3.279   7.806  0.00  0.00    +0.000 A 
ATOM      6  C   UNL     1      -4.867  -4.337   6.936  0.00  0.00    +0.000 A 
ATOM      7  C   UNL     1      -4.421  -4.086   5.635  0.00  0.00    +0.000 A 
ATOM      8  S   UNL     1      -4.144  -5.480   4.543  0.00  0.00    +0.000 S 
ATOM      9  C   UNL     1      -4.626  -4.718   2.999  0.00  0.00    +0.000 A 
ATOM     10  C   UNL     1      -5.152  -5.528   1.983  0.00  0.00    +0.000 A 
ATOM     11  C   UNL     1      -5.548  -4.976   0.765  0.00  0.00    +0.000 A 
ATOM     12  C   UNL     1      -5.507  -3.600   0.596  0.00  0.00    +0.000 A 
ATOM     13  C   UNL     1      -5.097  -2.800   1.655  0.00  0.00    +0.000 A 
ATOM     14  C   UNL     1      -4.525  -3.324   2.822  0.00  0.00    +0.000 A 
ENDROOT
BRANCH   1  15
ATOM     15  C   UNL     1      -3.172  -1.285   3.505  0.00  0.00    +0.000 C 
BRANCH  15  16
ATOM     16  C   UNL     1      -2.663  -1.239   2.078  0.00  0.00    +0.000 C 
BRANCH  16  17
ATOM     17  C   UNL     1      -1.947   0.031   1.690  0.00  0.00    +0.000 C 
BRANCH  17  22
ATOM     18  C   UNL     1       2.514   0.008   0.061  0.00  0.00    +0.000 C 
ATOM     19  N   UNL     1       1.111   0.021  -0.313  0.00  0.00    +0.000 NA
ATOM     20  C   UNL     1       0.431   1.231   0.191  0.00  0.00    +0.000 C 
ATOM     21  C   UNL     1      -1.064   1.249  -0.199  0.00  0.00    +0.000 C 
ATOM     22  N   UNL     1      -1.782   0.033   0.221  0.00  0.00    +0.000 NA
ATOM     23  C   UNL     1      -1.045  -1.154  -0.287  0.00  0.00    +0.000 C 
ATOM     24  C   UNL     1       0.420  -1.183   0.179  0.00  0.00    +0.000 C 
ENDBRANCH  17  22
ENDBRANCH  16  17
ENDBRANCH  15  16
ENDBRANCH   1  15
TORSDOF 4
