REMARK  Name = Perflubutane
REMARK  3 active torsions:
REMARK  status: ('A' for Active; 'I' for Inactive)
REMARK    1  A    between atoms: C_2  and  C_5
REMARK    2  A    between atoms: C_5  and  C_8
REMARK    3  A    between atoms: C_8  and  C_11
REMARK                            x       y       z     vdW  Elec       q    Type
REMARK                         _______ _______ _______ _____ _____    ______ ____
ROOT
ATOM      1  C   UNL     1       2.886   1.066   0.978  0.00  0.00    +0.000 C 
ATOM      2  F   UNL     1       2.405   2.268   0.551  0.00  0.00    +0.000 F 
ATOM      3  F   UNL     1       2.405   0.902   2.243  0.00  0.00    +0.000 F 
ENDROOT
BRANCH   1   5
ATOM      4  F   UNL     1       1.025  -0.075   0.056  0.00  0.00    +0.000 F 
ATOM      5  C   UNL     1       2.381  -0.044   0.081  0.00  0.00    +0.000 C 
ATOM      6  F   UNL     1       2.790  -1.266   0.494  0.00  0.00    +0.000 F 
ATOM      7  F   UNL     1       2.790   0.103  -1.200  0.00  0.00    +0.000 F 
ENDBRANCH   1   5
BRANCH   1   8
ATOM      8  C   UNL     1       4.389   1.065   0.977  0.00  0.00    +0.000 C 
ATOM      9  F   UNL     1       4.870  -0.137   1.404  0.00  0.00    +0.000 F 
ATOM     10  F   UNL     1       4.870   1.230  -0.288  0.00  0.00    +0.000 F 
BRANCH   8  11
ATOM     11  C   UNL     1       4.894   2.176   1.874  0.00  0.00    +0.000 C 
ATOM     12  F   UNL     1       4.485   3.397   1.461  0.00  0.00    +0.000 F 
ATOM     13  F   UNL     1       4.485   2.028   3.155  0.00  0.00    +0.000 F 
ATOM     14  F   UNL     1       6.250   2.206   1.899  0.00  0.00    +0.000 F 
ENDBRANCH   8  11
ENDBRANCH   1   8
TORSDOF 3
