REMARK  Name = Perflutren
REMARK  2 active torsions:
REMARK  status: ('A' for Active; 'I' for Inactive)
REMARK    1  A    between atoms: C_2  and  C_5
REMARK    2  A    between atoms: C_5  and  C_8
REMARK                            x       y       z     vdW  Elec       q    Type
REMARK                         _______ _______ _______ _____ _____    ______ ____
ROOT
ATOM      1  C   UNL     1       2.833  -1.117  -1.069  0.00  0.00    +0.000 C 
ATOM      2  F   UNL     1       2.358  -2.356  -0.747  0.00  0.00    +0.000 F 
ATOM      3  F   UNL     1       2.358  -0.849  -2.320  0.00  0.00    +0.000 F 
ENDROOT
BRANCH   1   5
ATOM      4  F   UNL     1       0.995  -0.042  -0.039  0.00  0.00    +0.000 F 
ATOM      5  C   UNL     1       2.351  -0.086  -0.081  0.00  0.00    +0.000 C 
ATOM      6  F   UNL     1       2.769   1.163  -0.392  0.00  0.00    +0.000 F 
ATOM      7  F   UNL     1       2.769  -0.343   1.180  0.00  0.00    +0.000 F 
ENDBRANCH   1   5
BRANCH   1   8
ATOM      8  C   UNL     1       4.339  -1.101  -1.054  0.00  0.00    +0.000 C 
ATOM      9  F   UNL     1       4.848   0.101  -1.409  0.00  0.00    +0.000 F 
ATOM     10  F   UNL     1       4.848  -1.405   0.163  0.00  0.00    +0.000 F 
ATOM     11  F   UNL     1       4.849  -2.010  -1.924  0.00  0.00    +0.000 F 
ENDBRANCH   1   8
TORSDOF 2
