REMARK  Name = Perflexane
REMARK  5 active torsions:
REMARK  status: ('A' for Active; 'I' for Inactive)
REMARK    1  A    between atoms: C_2  and  C_5
REMARK    2  A    between atoms: C_5  and  C_8
REMARK    3  A    between atoms: C_8  and  C_11
REMARK    4  A    between atoms: C_11  and  C_14
REMARK    5  A    between atoms: C_14  and  C_17
REMARK                            x       y       z     vdW  Elec       q    Type
REMARK                         _______ _______ _______ _____ _____    ______ ____
ROOT
ATOM      1  C   UNL     1       4.295   1.092   1.067  0.00  0.00    +0.000 C 
ATOM      2  F   UNL     1       4.765  -0.149   1.370  0.00  0.00    +0.000 F 
ATOM      3  F   UNL     1       4.765   1.375  -0.177  0.00  0.00    +0.000 F 
ENDROOT
BRANCH   1   4
ATOM      4  C   UNL     1       2.783   1.085   1.061  0.00  0.00    +0.000 C 
ATOM      5  F   UNL     1       2.302   2.323   0.753  0.00  0.00    +0.000 F 
ATOM      6  F   UNL     1       2.302   0.797   2.304  0.00  0.00    +0.000 F 
BRANCH   4   8
ATOM      7  F   UNL     1       0.926   0.034   0.027  0.00  0.00    +0.000 F 
ATOM      8  C   UNL     1       2.282   0.066   0.058  0.00  0.00    +0.000 C 
ATOM      9  F   UNL     1       2.694  -1.189   0.351  0.00  0.00    +0.000 F 
ATOM     10  F   UNL     1       2.694   0.339  -1.202  0.00  0.00    +0.000 F 
ENDBRANCH   4   8
ENDBRANCH   1   4
BRANCH   1  11
ATOM     11  C   UNL     1       4.828   2.104   2.064  0.00  0.00    +0.000 C 
ATOM     12  F   UNL     1       4.358   3.344   1.761  0.00  0.00    +0.000 F 
ATOM     13  F   UNL     1       4.358   1.820   3.308  0.00  0.00    +0.000 F 
BRANCH  11  14
ATOM     14  C   UNL     1       6.339   2.110   2.070  0.00  0.00    +0.000 C 
ATOM     15  F   UNL     1       6.820   0.872   2.378  0.00  0.00    +0.000 F 
ATOM     16  F   UNL     1       6.820   2.398   0.827  0.00  0.00    +0.000 F 
BRANCH  14  17
ATOM     17  C   UNL     1       6.841   3.129   3.073  0.00  0.00    +0.000 C 
ATOM     18  F   UNL     1       6.429   4.384   2.780  0.00  0.00    +0.000 F 
ATOM     19  F   UNL     1       6.429   2.856   4.333  0.00  0.00    +0.000 F 
ATOM     20  F   UNL     1       8.197   3.161   3.104  0.00  0.00    +0.000 F 
ENDBRANCH  14  17
ENDBRANCH  11  14
ENDBRANCH   1  11
TORSDOF 5
