REMARK  Name = Pergolide
REMARK  6 active torsions:
REMARK  status: ('A' for Active; 'I' for Inactive)
REMARK    1  A    between atoms: C_16  and  C_17
REMARK    2  A    between atoms: C_17  and  S_18
REMARK    3  A    between atoms: S_18  and  C_19
REMARK    4  A    between atoms: N_21  and  C_22
REMARK    5  A    between atoms: C_22  and  C_23
REMARK    6  A    between atoms: C_23  and  C_24
REMARK                            x       y       z     vdW  Elec       q    Type
REMARK                         _______ _______ _______ _____ _____    ______ ____
ROOT
ATOM      1  C   UNL     1       2.525  -0.344  -0.188  0.00  0.00    +0.000 C 
ATOM      2  C   UNL     1       2.912  -1.648  -0.938  0.00  0.00    +0.000 C 
ATOM      3  C   UNL     1       2.276  -1.576  -2.288  0.00  0.00    +0.000 A 
ATOM      4  C   UNL     1       1.899  -2.519  -3.173  0.00  0.00    +0.000 A 
ATOM      5  N   UNL     1       1.453  -1.874  -4.317  0.00  0.00    +0.000 N 
ATOM      6  C   UNL     1       1.450  -0.503  -4.085  0.00  0.00    +0.000 A 
ATOM      7  C   UNL     1       1.175   0.591  -4.915  0.00  0.00    +0.000 A 
ATOM      8  C   UNL     1       1.315   1.844  -4.292  0.00  0.00    +0.000 A 
ATOM      9  C   UNL     1       1.468   1.968  -2.880  0.00  0.00    +0.000 A 
ATOM     10  C   UNL     1       1.457   0.826  -2.025  0.00  0.00    +0.000 A 
ATOM     11  C   UNL     1       1.708  -0.354  -2.752  0.00  0.00    +0.000 A 
ATOM     12  C   UNL     1       1.420   0.683  -0.466  0.00  0.00    +0.000 C 
ATOM     13  C   UNL     1       0.169  -0.264   0.524  0.00  0.00    +0.000 C 
ATOM     14  C   UNL     1       0.657  -0.764   2.039  0.00  0.00    +0.000 C 
ATOM     15  C   UNL     1       2.186  -1.037   2.094  0.00  0.00    +0.000 C 
ATOM     16  N   UNL     1       2.856  -0.109   1.214  0.00  0.00    +0.000 NA
ATOM     17  H   UNL     1       1.148  -2.319  -5.143  0.00  0.00    +0.000 HD
ENDROOT
BRANCH  14  18
ATOM     18  C   UNL     1       0.042  -2.040   2.789  0.00  0.00    +0.000 C 
BRANCH  18  19
ATOM     19  S   UNL     1      -1.777  -2.065   2.927  0.00  0.00    +0.000 S 
ATOM     20  C   UNL     1      -2.091  -3.515   4.013  0.00  0.00    +0.000 C 
ENDBRANCH  18  19
ENDBRANCH  14  18
BRANCH  16  21
ATOM     21  C   UNL     1       4.275   0.024   1.291  0.00  0.00    +0.000 C 
BRANCH  21  22
ATOM     22  C   UNL     1       4.799   0.231   2.691  0.00  0.00    +0.000 C 
ATOM     23  C   UNL     1       6.304   0.240   2.583  0.00  0.00    +0.000 C 
ENDBRANCH  21  22
ENDBRANCH  16  21
TORSDOF 4
