REMARK  Name = Perhexiline
REMARK  4 active torsions:
REMARK  status: ('A' for Active; 'I' for Inactive)
REMARK    1  A    between atoms: C_1  and  C_2
REMARK    2  A    between atoms: C_1  and  C_15
REMARK    3  A    between atoms: C_2  and  C_3
REMARK    4  A    between atoms: C_2  and  C_9
REMARK                            x       y       z     vdW  Elec       q    Type
REMARK                         _______ _______ _______ _____ _____    ______ ____
ROOT
ATOM      1  C   UNL     1       0.452  -1.383  -0.605  0.00  0.00    +0.000 C 
ENDROOT
BRANCH   1   2
ATOM      2  C   UNL     1       0.864  -2.727   0.064  0.00  0.00    +0.000 C 
ATOM      3  C   UNL     1       0.541  -2.855   1.576  0.00  0.00    +0.000 C 
ATOM      4  C   UNL     1       0.875  -4.216   2.140  0.00  0.00    +0.000 C 
ATOM      5  C   UNL     1       0.456  -5.323   1.179  0.00  0.00    +0.000 C 
ATOM      6  C   UNL     1       1.175  -5.210  -0.160  0.00  0.00    +0.000 C 
ATOM      7  C   UNL     1       0.797  -3.934  -0.894  0.00  0.00    +0.000 C 
ENDBRANCH   1   2
BRANCH   1   8
ATOM      8  C   UNL     1      -1.138  -1.253  -0.725  0.00  0.00    +0.000 C 
ATOM      9  C   UNL     1      -1.914  -2.469  -0.176  0.00  0.00    +0.000 C 
ATOM     10  C   UNL     1      -3.407  -2.432  -0.054  0.00  0.00    +0.000 C 
ATOM     11  C   UNL     1      -3.755  -1.202   0.768  0.00  0.00    +0.000 C 
ATOM     12  C   UNL     1      -3.198   0.039   0.084  0.00  0.00    +0.000 C 
ATOM     13  C   UNL     1      -1.676   0.007  -0.020  0.00  0.00    +0.000 C 
ENDBRANCH   1   8
BRANCH   1  14
ATOM     14  C   UNL     1       1.168  -0.130   0.032  0.00  0.00    +0.000 C 
BRANCH  14  15
ATOM     15  C   UNL     1       2.724  -0.049  -0.005  0.00  0.00    +0.000 C 
ATOM     16  C   UNL     1       3.417  -1.252   0.628  0.00  0.00    +0.000 C 
ATOM     17  C   UNL     1       4.901  -1.187   0.828  0.00  0.00    +0.000 C 
ATOM     18  C   UNL     1       5.279   0.123   1.457  0.00  0.00    +0.000 C 
ATOM     19  C   UNL     1       4.623   1.280   0.704  0.00  0.00    +0.000 C 
ATOM     20  N   UNL     1       3.162   1.166   0.701  0.00  0.00    +0.000 NA
ATOM     21  H   UNL     1       2.756   1.991   0.250  0.00  0.00    +0.000 HD
ENDBRANCH  14  15
ENDBRANCH   1  14
TORSDOF 4
