REMARK  Name = Periciazine
REMARK  6 active torsions:
REMARK  status: ('A' for Active; 'I' for Inactive)
REMARK    1  A    between atoms: O_1  and  C_2
REMARK    2  A    between atoms: N_5  and  C_6
REMARK    3  A    between atoms: C_6  and  C_7
REMARK    4  A    between atoms: C_7  and  C_8
REMARK    5  A    between atoms: C_8  and  N_9
REMARK    6  A    between atoms: C_20  and  C_23
REMARK                            x       y       z     vdW  Elec       q    Type
REMARK                         _______ _______ _______ _____ _____    ______ ____
ROOT
ATOM      1  N   UNL     1       5.689   2.480   1.524  0.00  0.00    +0.000 N 
ATOM      2  C   UNL     1       5.021   3.724   1.740  0.00  0.00    +0.000 A 
ATOM      3  C   UNL     1       3.687   3.798   2.193  0.00  0.00    +0.000 A 
ATOM      4  C   UNL     1       2.975   4.992   2.265  0.00  0.00    +0.000 A 
ATOM      5  C   UNL     1       3.621   6.186   2.020  0.00  0.00    +0.000 A 
ATOM      6  C   UNL     1       4.958   6.169   1.661  0.00  0.00    +0.000 A 
ATOM      7  C   UNL     1       5.647   4.958   1.502  0.00  0.00    +0.000 A 
ATOM      8  S   UNL     1       7.328   5.152   1.020  0.00  0.00    +0.000 S 
ATOM      9  C   UNL     1       7.857   3.473   0.902  0.00  0.00    +0.000 A 
ATOM     10  C   UNL     1       7.044   2.345   1.133  0.00  0.00    +0.000 A 
ATOM     11  C   UNL     1       7.669   1.093   0.968  0.00  0.00    +0.000 A 
ATOM     12  C   UNL     1       9.015   0.968   0.607  0.00  0.00    +0.000 A 
ATOM     13  C   UNL     1       9.784   2.101   0.395  0.00  0.00    +0.000 A 
ATOM     14  C   UNL     1       9.204   3.348   0.542  0.00  0.00    +0.000 A 
ENDROOT
BRANCH  12  15
ATOM     15  C   UNL     1       9.583  -0.333   0.463  0.00  0.00    +0.000 C 
ATOM     16  N   UNL     1      10.028  -1.405   0.352  0.00  0.00    +0.000 NA
ENDBRANCH  12  15
BRANCH   1  17
ATOM     17  C   UNL     1       4.883   1.257   1.711  0.00  0.00    +0.000 C 
BRANCH  17  18
ATOM     18  C   UNL     1       3.761   1.173   0.691  0.00  0.00    +0.000 C 
BRANCH  18  19
ATOM     19  C   UNL     1       2.885  -0.031   0.977  0.00  0.00    +0.000 C 
BRANCH  19  23
ATOM     20  C   UNL     1      -1.114  -0.009  -0.545  0.00  0.00    +0.000 C 
ATOM     21  C   UNL     1      -0.241  -1.255  -0.664  0.00  0.00    +0.000 C 
ATOM     22  C   UNL     1       0.926  -1.223   0.316  0.00  0.00    +0.000 C 
ATOM     23  N   UNL     1       1.708  -0.000   0.109  0.00  0.00    +0.000 NA
ATOM     24  C   UNL     1       0.866   1.187   0.366  0.00  0.00    +0.000 C 
ATOM     25  C   UNL     1      -0.283   1.256  -0.621  0.00  0.00    +0.000 C 
BRANCH  20  26
ATOM     26  O   UNL     1      -1.807  -0.015   0.704  0.00  0.00    +0.000 OA
ATOM     27  H   UNL     1      -2.301  -0.850   0.759  0.00  0.00    +0.000 HD
ENDBRANCH  20  26
ENDBRANCH  19  23
ENDBRANCH  18  19
ENDBRANCH  17  18
ENDBRANCH   1  17
TORSDOF 6
