REMARK  Name = Perindopril
REMARK  13 active torsions:
REMARK  status: ('A' for Active; 'I' for Inactive)
REMARK    1  A    between atoms: CA_4  and  C_26
REMARK    2  A    between atoms: C_6  and  CA_8
REMARK    3  A    between atoms: CA_8  and  CB_9
REMARK    4  A    between atoms: CA_8  and  N_10
REMARK    5  A    between atoms: N_10  and  C_11
REMARK    6  A    between atoms: C_11  and  C_12
REMARK    7  A    between atoms: C_11  and  C_15
REMARK    8  A    between atoms: C_12  and  C_13
REMARK    9  A    between atoms: C_13  and  C_14
REMARK   10  A    between atoms: C_15  and  O_17
REMARK   11  A    between atoms: O_17  and  C_18
REMARK   12  A    between atoms: C_18  and  C_19
REMARK   13  A    between atoms: C_26  and  O_27
REMARK                            x       y       z     vdW  Elec       q    Type
REMARK                         _______ _______ _______ _____ _____    ______ ____
ROOT
ATOM      1  C   ALA A   1       1.604   0.722   3.365  0.00  0.00    +0.000 C 
ATOM      2  C   ALA A   1       0.089   0.637   3.128  0.00  0.00    +0.000 C 
ATOM      3  CA  ALA A   1      -0.239  -0.875   3.066  0.00  0.00    +0.000 C 
ATOM      4  N   ALA A   1       1.050  -1.524   2.686  0.00  0.00    +0.000 N 
ATOM      5  C   ALA A   1       1.179  -2.931   2.566  0.00  0.00    +0.000 C 
ATOM      6  O   ALA A   1       0.207  -3.676   2.697  0.00  0.00    +0.000 OA
ATOM      7  C   ALA A   1       2.121  -0.511   2.589  0.00  0.00    +0.000 C 
ATOM      8  C   ALA A   1       2.293  -0.204   1.111  0.00  0.00    +0.000 C 
ATOM      9  C   ALA A   1       3.051   1.064   0.824  0.00  0.00    +0.000 C 
ATOM     10  C   ALA A   1       2.329   2.248   1.429  0.00  0.00    +0.000 C 
ATOM     11  C   ALA A   1       2.202   2.079   2.940  0.00  0.00    +0.000 C 
ENDROOT
BRANCH   5  12
ATOM     12  CA  ALA A   1       2.595  -3.615   2.402  0.00  0.00    +0.000 C 
ATOM     13  CB  ALA A   1       2.746  -3.754   0.894  0.00  0.00    +0.000 C 
BRANCH  12  14
ATOM     14  N   ALA A   1       2.635  -4.991   3.004  0.00  0.00    +0.000 NA
ATOM     15  H   ALA A   1       3.385  -5.548   2.590  0.00  0.00    +0.000 HD
BRANCH  14  16
ATOM     16  C   UNK A   0       2.675  -5.174   4.490  0.00  0.00    +0.000 C 
BRANCH  16  17
ATOM     17  C   UNK A   0       2.637  -6.699   4.840  0.00  0.00    +0.000 C 
ATOM     18  O   UNK A   0       2.653  -7.616   4.027  0.00  0.00    +0.000 OA
BRANCH  17  19
ATOM     19  O   UNK A   0       2.656  -6.892   6.203  0.00  0.00    +0.000 OA
BRANCH  19  20
ATOM     20  C   UNK A   0       2.586  -8.267   6.617  0.00  0.00    +0.000 C 
ATOM     21  C   UNK A   0       2.600  -8.352   8.136  0.00  0.00    +0.000 C 
ENDBRANCH  19  20
ENDBRANCH  17  19
ENDBRANCH  16  17
BRANCH  16  22
ATOM     22  C   UNK A   0       1.540  -4.507   5.280  0.00  0.00    +0.000 C 
BRANCH  22  23
ATOM     23  C   UNK A   0       1.708  -3.007   5.363  0.00  0.00    +0.000 C 
ATOM     24  C   UNK A   0       0.429  -2.315   5.739  0.00  0.00    +0.000 C 
ENDBRANCH  22  23
ENDBRANCH  16  22
ENDBRANCH  14  16
ENDBRANCH  12  14
ENDBRANCH   5  12
BRANCH   3  25
ATOM     25  C   ALA A   1      -1.488  -1.327   2.268  0.00  0.00    +0.000 C 
ATOM     26  OXT ALA A   1      -1.767  -2.457   1.957  0.00  0.00    +0.000 OA
BRANCH  25  27
ATOM     27  O   ALA A   1      -2.398  -0.348   2.054  0.00  0.00    +0.000 OA
ATOM     28  H   ALA A   1      -2.184   0.512   2.438  0.00  0.00    +0.000 HD
ENDBRANCH  25  27
ENDBRANCH   3  25
TORSDOF 10
