REMARK  Name = Permethrin
REMARK  9 active torsions:
REMARK  status: ('A' for Active; 'I' for Inactive)
REMARK    1  A    between atoms: C_1  and  C_2
REMARK    2  A    between atoms: C_2  and  C_3
REMARK    3  A    between atoms: C_4  and  C_5
REMARK    4  A    between atoms: C_9  and  C_10
REMARK    5  A    between atoms: C_10  and  O_12
REMARK    6  A    between atoms: O_12  and  C_13
REMARK    7  A    between atoms: C_13  and  C_14
REMARK    8  A    between atoms: C_16  and  O_17
REMARK    9  A    between atoms: O_17  and  C_18
REMARK                            x       y       z     vdW  Elec       q    Type
REMARK                         _______ _______ _______ _____ _____    ______ ____
ROOT
ATOM      1  C   UNL     1      -1.881   1.958   3.805  0.00  0.00    +0.000 C 
ENDROOT
BRANCH   1   2
ATOM      2  C   UNL     1      -1.788   1.604   5.280  0.00  0.00    +0.000 A 
ATOM      3  C   UNL     1      -1.592   0.289   5.737  0.00  0.00    +0.000 A 
ATOM      4  C   UNL     1      -1.716  -0.014   7.102  0.00  0.00    +0.000 A 
ATOM      5  C   UNL     1      -1.879   1.018   8.023  0.00  0.00    +0.000 A 
ATOM      6  C   UNL     1      -2.068   2.322   7.592  0.00  0.00    +0.000 A 
ATOM      7  C   UNL     1      -2.027   2.614   6.230  0.00  0.00    +0.000 A 
BRANCH   4   8
ATOM      8  O   UNL     1      -1.674  -1.344   7.460  0.00  0.00    +0.000 OA
BRANCH   8   9
ATOM      9  C   UNL     1      -2.131  -1.726   8.708  0.00  0.00    +0.000 A 
ATOM     10  C   UNL     1      -1.336  -2.647   9.386  0.00  0.00    +0.000 A 
ATOM     11  C   UNL     1      -1.758  -3.168  10.610  0.00  0.00    +0.000 A 
ATOM     12  C   UNL     1      -2.929  -2.700  11.206  0.00  0.00    +0.000 A 
ATOM     13  C   UNL     1      -3.716  -1.759  10.546  0.00  0.00    +0.000 A 
ATOM     14  C   UNL     1      -3.339  -1.302   9.280  0.00  0.00    +0.000 A 
ENDBRANCH   8   9
ENDBRANCH   4   8
ENDBRANCH   1   2
BRANCH   1  15
ATOM     15  O   UNL     1      -1.458   0.874   2.958  0.00  0.00    +0.000 OA
BRANCH  15  16
ATOM     16  C   UNL     1      -1.593   1.108   1.626  0.00  0.00    +0.000 C 
ATOM     17  O   UNL     1      -1.996   2.156   1.126  0.00  0.00    +0.000 OA
BRANCH  16  22
ATOM     18  C   UNL     1       1.049  -1.209  -0.024  0.00  0.00    +0.000 C 
ATOM     19  C   UNL     1       0.155   0.014  -0.004  0.00  0.00    +0.000 C 
ATOM     20  C   UNL     1       0.926   1.314   0.025  0.00  0.00    +0.000 C 
ATOM     21  C   UNL     1      -1.189   0.016  -0.718  0.00  0.00    +0.000 C 
ATOM     22  C   UNL     1      -1.151  -0.066   0.796  0.00  0.00    +0.000 C 
BRANCH  21  23
ATOM     23  C   UNL     1      -1.549  -1.112  -1.604  0.00  0.00    +0.000 C 
ATOM     24  C   UNL     1      -1.579  -1.065  -2.949  0.00  0.00    +0.000 C 
ATOM     25 CL   UNL     1      -1.169   0.370  -3.825  0.00  0.00    +0.000 Cl
ATOM     26 CL   UNL     1      -2.051  -2.437  -3.887  0.00  0.00    +0.000 Cl
ENDBRANCH  21  23
ENDBRANCH  16  22
ENDBRANCH  15  16
ENDBRANCH   1  15
TORSDOF 7
