REMARK  Name = Perphenazine
REMARK  7 active torsions:
REMARK  status: ('A' for Active; 'I' for Inactive)
REMARK    1  A    between atoms: O_1  and  C_2
REMARK    2  A    between atoms: C_2  and  C_3
REMARK    3  A    between atoms: C_3  and  N_4
REMARK    4  A    between atoms: N_7  and  C_8
REMARK    5  A    between atoms: C_8  and  C_9
REMARK    6  A    between atoms: C_9  and  C_10
REMARK    7  A    between atoms: C_10  and  N_11
REMARK                            x       y       z     vdW  Elec       q    Type
REMARK                         _______ _______ _______ _____ _____    ______ ____
ROOT
ATOM      1  N   UNL     1       9.056  -3.177   2.998  0.00  0.00    +0.000 N 
ATOM      2  C   UNL     1       9.794  -3.006   4.199  0.00  0.00    +0.000 A 
ATOM      3  C   UNL     1      10.263  -1.750   4.646  0.00  0.00    +0.000 A 
ATOM      4  C   UNL     1      11.026  -1.592   5.805  0.00  0.00    +0.000 A 
ATOM      5  C   UNL     1      11.359  -2.700   6.567  0.00  0.00    +0.000 A 
ATOM      6  C   UNL     1      10.916  -3.949   6.165  0.00  0.00    +0.000 A 
ATOM      7  C   UNL     1      10.142  -4.111   5.005  0.00  0.00    +0.000 A 
ATOM      8  S   UNL     1       9.657  -5.783   4.676  0.00  0.00    +0.000 S 
ATOM      9  C   UNL     1       8.766  -5.635   3.158  0.00  0.00    +0.000 A 
ATOM     10  C   UNL     1       8.586  -4.421   2.466  0.00  0.00    +0.000 A 
ATOM     11  C   UNL     1       7.883  -4.512   1.239  0.00  0.00    +0.000 A 
ATOM     12  C   UNL     1       7.283  -5.688   0.799  0.00  0.00    +0.000 A 
ATOM     13 CL   UNL     1       6.290  -5.671  -0.605  0.00  0.00    +0.000 Cl
ATOM     14  C   UNL     1       7.457  -6.865   1.509  0.00  0.00    +0.000 A 
ATOM     15  C   UNL     1       8.219  -6.833   2.669  0.00  0.00    +0.000 A 
ENDROOT
BRANCH   1  16
ATOM     16  C   UNL     1       8.535  -1.966   2.346  0.00  0.00    +0.000 C 
BRANCH  16  17
ATOM     17  C   UNL     1       7.031  -1.869   2.529  0.00  0.00    +0.000 C 
BRANCH  17  18
ATOM     18  C   UNL     1       6.543  -0.718   1.696  0.00  0.00    +0.000 C 
BRANCH  18  22
ATOM     19  N   UNL     1       4.357  -0.768  -1.280  0.00  0.00    +0.000 NA
ATOM     20  C   UNL     1       4.909   0.446  -0.635  0.00  0.00    +0.000 C 
ATOM     21  C   UNL     1       4.737   0.535   0.911  0.00  0.00    +0.000 C 
ATOM     22  N   UNL     1       5.085  -0.710   1.625  0.00  0.00    +0.000 NA
ATOM     23  C   UNL     1       4.553  -1.919   0.926  0.00  0.00    +0.000 C 
ATOM     24  C   UNL     1       4.869  -1.961  -0.579  0.00  0.00    +0.000 C 
BRANCH  19  25
ATOM     25  C   UNL     1       2.871  -0.783  -1.351  0.00  0.00    +0.000 C 
BRANCH  25  26
ATOM     26  C   UNL     1       2.107  -0.043  -0.239  0.00  0.00    +0.000 C 
BRANCH  26  27
ATOM     27  O   UNL     1       0.698  -0.094  -0.313  0.00  0.00    +0.000 OA
ATOM     28  H   UNL     1       0.410   0.337   0.517  0.00  0.00    +0.000 HD
ENDBRANCH  26  27
ENDBRANCH  25  26
ENDBRANCH  19  25
ENDBRANCH  18  22
ENDBRANCH  17  18
ENDBRANCH  16  17
ENDBRANCH   1  16
TORSDOF 7
