REMARK  Name = Pexidartinib
REMARK  5 active torsions:
REMARK  status: ('A' for Active; 'I' for Inactive)
REMARK    1  A    between atoms: C_2  and  C_5
REMARK    2  A    between atoms: C_8  and  C_9
REMARK    3  A    between atoms: C_9  and  N_10
REMARK    4  A    between atoms: C_14  and  C_15
REMARK    5  A    between atoms: C_15  and  C_16
REMARK                            x       y       z     vdW  Elec       q    Type
REMARK                         _______ _______ _______ _____ _____    ______ ____
ROOT
ATOM      1  N   UNL     1       5.336  -5.560   2.147  0.00  0.00    +0.000 N 
ATOM      2  C   UNL     1       5.718  -6.868   2.569  0.00  0.00    +0.000 A 
ATOM      3  N   UNL     1       6.087  -7.151   3.831  0.00  0.00    +0.000 NA
ATOM      4  C   UNL     1       6.436  -8.504   4.173  0.00  0.00    +0.000 A 
ATOM      5  C   UNL     1       6.463  -9.693   3.346  0.00  0.00    +0.000 A 
ATOM      6  C   UNL     1       6.212  -9.290   2.027  0.00  0.00    +0.000 A 
ATOM      7  C   UNL     1       5.825  -7.918   1.660  0.00  0.00    +0.000 A 
ATOM      8  H   UNL     1       5.415  -4.902   2.918  0.00  0.00    +0.000 HD
ENDROOT
BRANCH   1   9
ATOM      9  C   UNL     1       4.055  -5.427   1.406  0.00  0.00    +0.000 C 
BRANCH   9  13
ATOM     10  C   UNL     1       2.731  -1.453   0.338  0.00  0.00    +0.000 A 
ATOM     11  C   UNL     1       3.866  -1.583   1.136  0.00  0.00    +0.000 A 
ATOM     12  C   UNL     1       4.311  -2.856   1.499  0.00  0.00    +0.000 A 
ATOM     13  C   UNL     1       3.637  -3.998   1.066  0.00  0.00    +0.000 A 
ATOM     14  C   UNL     1       2.508  -3.772   0.268  0.00  0.00    +0.000 A 
ATOM     15  N   UNL     1       2.052  -2.547  -0.107  0.00  0.00    +0.000 NA
BRANCH  10  17
ATOM     16  F   UNL     1       0.899   0.066  -0.087  0.00  0.00    +0.000 F 
ATOM     17  C   UNL     1       2.256  -0.061  -0.058  0.00  0.00    +0.000 C 
ATOM     18  F   UNL     1       2.699   0.322  -1.290  0.00  0.00    +0.000 F 
ATOM     19  F   UNL     1       2.690   0.912   0.801  0.00  0.00    +0.000 F 
ENDBRANCH  10  17
ENDBRANCH   9  13
ENDBRANCH   1   9
BRANCH   5  20
ATOM     20  C   UNL     1       6.811 -11.252   4.013  0.00  0.00    +0.000 C 
BRANCH  20  21
ATOM     21  C   UNL     1       7.057 -12.801   3.151  0.00  0.00    +0.000 A 
ATOM     22  C   UNL     1       8.366 -12.682   2.711  0.00  0.00    +0.000 A 
ATOM     23  N   UNL     1       8.171 -13.219   1.465  0.00  0.00    +0.000 N 
ATOM     24  C   UNL     1       8.063 -14.523   1.724  0.00  0.00    +0.000 A 
ATOM     25  N   UNL     1       8.765 -15.420   0.970  0.00  0.00    +0.000 NA
ATOM     26  C   UNL     1       8.998 -16.577   1.533  0.00  0.00    +0.000 A 
ATOM     27  C   UNL     1       8.438 -16.929   2.745  0.00  0.00    +0.000 A 
ATOM     28 CL   UNL     1       8.847 -18.544   3.269  0.00  0.00    +0.000 Cl
ATOM     29  C   UNL     1       7.570 -15.952   3.494  0.00  0.00    +0.000 A 
ATOM     30  C   UNL     1       7.373 -14.544   2.964  0.00  0.00    +0.000 A 
ATOM     31  H   UNL     1       7.471 -12.858   0.807  0.00  0.00    +0.000 HD
ENDBRANCH  20  21
ENDBRANCH   5  20
TORSDOF 5
