REMARK  Name = Phenprocoumon
REMARK  5 active torsions:
REMARK  status: ('A' for Active; 'I' for Inactive)
REMARK    1  A    between atoms: C_1  and  C_2
REMARK    2  A    between atoms: C_2  and  C_3
REMARK    3  A    between atoms: C_3  and  C_4
REMARK    4  A    between atoms: C_3  and  C_10
REMARK    5  A    between atoms: C_11  and  O_12
REMARK                            x       y       z     vdW  Elec       q    Type
REMARK                         _______ _______ _______ _____ _____    ______ ____
ROOT
ATOM      1  C   UNL     1       4.605  -1.591   0.642  0.00  0.00    +0.000 A 
ATOM      2  C   UNL     1       5.198  -2.379   1.566  0.00  0.00    +0.000 A 
ATOM      3  C   UNL     1       6.657  -2.458   1.558  0.00  0.00    +0.000 A 
ATOM      4  C   UNL     1       7.181  -3.187   0.504  0.00  0.00    +0.000 A 
ATOM      5  O   UNL     1       6.627  -2.173  -0.666  0.00  0.00    +0.000 OA
ATOM      6  C   UNL     1       5.591  -1.173  -0.416  0.00  0.00    +0.000 A 
ATOM      7  O   UNL     1       5.540  -0.095  -0.953  0.00  0.00    +0.000 OA
ATOM      8  C   UNL     1       8.587  -3.369   0.441  0.00  0.00    +0.000 A 
ATOM      9  C   UNL     1       9.419  -2.440   1.073  0.00  0.00    +0.000 A 
ATOM     10  C   UNL     1       8.826  -1.349   1.690  0.00  0.00    +0.000 A 
ATOM     11  C   UNL     1       7.445  -1.358   1.916  0.00  0.00    +0.000 A 
ENDROOT
BRANCH   2  12
ATOM     12  O   UNL     1       4.596  -3.347   2.340  0.00  0.00    +0.000 OA
ATOM     13  H   UNL     1       3.671  -3.479   2.065  0.00  0.00    +0.000 HD
ENDBRANCH   2  12
BRANCH   1  14
ATOM     14  C   UNL     1       3.087  -1.375   0.424  0.00  0.00    +0.000 C 
BRANCH  14  15
ATOM     15  C   UNL     1       2.580  -2.458  -0.537  0.00  0.00    +0.000 A 
ATOM     16  C   UNL     1       1.653  -2.264  -1.564  0.00  0.00    +0.000 A 
ATOM     17  C   UNL     1       1.129  -3.345  -2.273  0.00  0.00    +0.000 A 
ATOM     18  C   UNL     1       1.630  -4.625  -2.071  0.00  0.00    +0.000 A 
ATOM     19  C   UNL     1       2.613  -4.833  -1.130  0.00  0.00    +0.000 A 
ATOM     20  C   UNL     1       3.079  -3.760  -0.402  0.00  0.00    +0.000 A 
ENDBRANCH  14  15
BRANCH  14  22
ATOM     21  C   UNL     1       1.001   0.203   0.192  0.00  0.00    +0.000 C 
ATOM     22  C   UNL     1       2.544   0.058   0.075  0.00  0.00    +0.000 C 
ENDBRANCH  14  22
ENDBRANCH   1  14
TORSDOF 4
