REMARK  Name = Phenobarbital
REMARK  3 active torsions:
REMARK  status: ('A' for Active; 'I' for Inactive)
REMARK    1  A    between atoms: C_1  and  C_2
REMARK    2  A    between atoms: C_2  and  C_3
REMARK    3  A    between atoms: C_3  and  C_12
REMARK                            x       y       z     vdW  Elec       q    Type
REMARK                         _______ _______ _______ _____ _____    ______ ____
ROOT
ATOM      1  C   UNL     1       3.093  -1.158   1.057  0.00  0.00    +0.000 C 
ATOM      2  C   UNL     1       4.593  -1.228   0.735  0.00  0.00    +0.000 C 
ATOM      3  O   UNL     1       5.368  -0.278   0.872  0.00  0.00    +0.000 OA
ATOM      4  N   UNL     1       5.080  -2.383   0.198  0.00  0.00    +0.000 N 
ATOM      5  C   UNL     1       4.398  -3.532  -0.035  0.00  0.00    +0.000 C 
ATOM      6  O   UNL     1       4.941  -4.527  -0.486  0.00  0.00    +0.000 OA
ATOM      7  N   UNL     1       3.079  -3.522   0.257  0.00  0.00    +0.000 N 
ATOM      8  C   UNL     1       2.365  -2.482   0.748  0.00  0.00    +0.000 C 
ATOM      9  O   UNL     1       1.162  -2.682   0.939  0.00  0.00    +0.000 OA
ATOM     10  H   UNL     1       6.064  -2.391  -0.032  0.00  0.00    +0.000 HD
ATOM     11  H   UNL     1       2.559  -4.375   0.106  0.00  0.00    +0.000 HD
ENDROOT
BRANCH   1  12
ATOM     12  C   UNL     1       2.862  -0.734   2.525  0.00  0.00    +0.000 A 
ATOM     13  C   UNL     1       2.064  -1.502   3.394  0.00  0.00    +0.000 A 
ATOM     14  C   UNL     1       1.628  -0.999   4.614  0.00  0.00    +0.000 A 
ATOM     15  C   UNL     1       2.106   0.221   5.066  0.00  0.00    +0.000 A 
ATOM     16  C   UNL     1       2.984   0.956   4.275  0.00  0.00    +0.000 A 
ATOM     17  C   UNL     1       3.348   0.493   3.010  0.00  0.00    +0.000 A 
ENDBRANCH   1  12
BRANCH   1  19
ATOM     18  C   UNL     1       1.018   0.038   0.034  0.00  0.00    +0.000 C 
ATOM     19  C   UNL     1       2.537  -0.073   0.074  0.00  0.00    +0.000 C 
ENDBRANCH   1  19
TORSDOF 2
