REMARK  Name = Phenylephrine
REMARK  6 active torsions:
REMARK  status: ('A' for Active; 'I' for Inactive)
REMARK    1  A    between atoms: C_1  and  N_2
REMARK    2  A    between atoms: N_2  and  C_3
REMARK    3  A    between atoms: C_3  and  C_4
REMARK    4  A    between atoms: C_4  and  O_5
REMARK    5  A    between atoms: C_4  and  C_6
REMARK    6  A    between atoms: C_8  and  O_9
REMARK                            x       y       z     vdW  Elec       q    Type
REMARK                         _______ _______ _______ _____ _____    ______ ____
ROOT
ATOM      1  C   UNL     1       5.092   0.364  -2.863  0.00  0.00    +0.000 A 
ATOM      2  C   UNL     1       5.452  -0.726  -3.677  0.00  0.00    +0.000 A 
ATOM      3  C   UNL     1       5.895  -0.514  -4.979  0.00  0.00    +0.000 A 
ATOM      4  C   UNL     1       5.980   0.766  -5.496  0.00  0.00    +0.000 A 
ATOM      5  C   UNL     1       5.610   1.857  -4.712  0.00  0.00    +0.000 A 
ATOM      6  C   UNL     1       5.163   1.656  -3.404  0.00  0.00    +0.000 A 
ENDROOT
BRANCH   3   7
ATOM      7  O   UNL     1       6.249  -1.561  -5.779  0.00  0.00    +0.000 OA
ATOM      8  H   UNL     1       6.109  -2.390  -5.295  0.00  0.00    +0.000 HD
ENDBRANCH   3   7
BRANCH   1   9
ATOM      9  C   UNL     1       4.564   0.199  -1.454  0.00  0.00    +0.000 C 
BRANCH   9  10
ATOM     10  O   UNL     1       3.141   0.304  -1.536  0.00  0.00    +0.000 OA
ATOM     11  H   UNL     1       2.818  -0.553  -1.859  0.00  0.00    +0.000 HD
ENDBRANCH   9  10
BRANCH   9  12
ATOM     12  C   UNL     1       5.003  -1.115  -0.760  0.00  0.00    +0.000 C 
BRANCH  12  14
ATOM     13  C   UNL     1       4.629  -2.692   1.004  0.00  0.00    +0.000 C 
ATOM     14  N   UNL     1       4.260  -1.392   0.472  0.00  0.00    +0.000 NA
ATOM     15  H   UNL     1       4.429  -0.654   1.154  0.00  0.00    +0.000 HD
ENDBRANCH  12  14
ENDBRANCH   9  12
ENDBRANCH   1   9
TORSDOF 5
