REMARK  Name = Pheniramine
REMARK  7 active torsions:
REMARK  status: ('A' for Active; 'I' for Inactive)
REMARK    1  A    between atoms: C_1  and  N_2
REMARK    2  A    between atoms: N_2  and  C_3
REMARK    3  A    between atoms: N_2  and  C_4
REMARK    4  A    between atoms: C_4  and  C_5
REMARK    5  A    between atoms: C_5  and  C_6
REMARK    6  A    between atoms: C_6  and  C_7
REMARK    7  A    between atoms: C_6  and  C_13
REMARK                            x       y       z     vdW  Elec       q    Type
REMARK                         _______ _______ _______ _____ _____    ______ ____
ROOT
ATOM      1  C   UNL     1       5.088  -2.329  -1.442  0.00  0.00    +0.000 C 
ENDROOT
BRANCH   1   2
ATOM      2  C   UNL     1       4.570  -2.344  -2.871  0.00  0.00    +0.000 A 
ATOM      3  C   UNL     1       4.337  -1.146  -3.569  0.00  0.00    +0.000 A 
ATOM      4  C   UNL     1       3.684  -1.163  -4.797  0.00  0.00    +0.000 A 
ATOM      5  C   UNL     1       3.361  -2.375  -5.389  0.00  0.00    +0.000 A 
ATOM      6  C   UNL     1       3.664  -3.577  -4.747  0.00  0.00    +0.000 A 
ATOM      7  C   UNL     1       4.254  -3.560  -3.483  0.00  0.00    +0.000 A 
ENDBRANCH   1   2
BRANCH   1   8
ATOM      8  C   UNL     1       6.605  -2.365  -1.389  0.00  0.00    +0.000 A 
ATOM      9  C   UNL     1       7.271  -3.589  -1.388  0.00  0.00    +0.000 A 
ATOM     10  C   UNL     1       8.661  -3.594  -1.371  0.00  0.00    +0.000 A 
ATOM     11  C   UNL     1       9.347  -2.386  -1.358  0.00  0.00    +0.000 A 
ATOM     12  C   UNL     1       8.612  -1.214  -1.365  0.00  0.00    +0.000 A 
ATOM     13  N   UNL     1       7.266  -1.180  -1.380  0.00  0.00    +0.000 NA
ENDBRANCH   1   8
BRANCH   1  14
ATOM     14  C   UNL     1       4.542  -1.146  -0.617  0.00  0.00    +0.000 C 
BRANCH  14  15
ATOM     15  C   UNL     1       3.008  -1.126  -0.566  0.00  0.00    +0.000 C 
BRANCH  15  17
ATOM     16  C   UNL     1       1.035   0.070   0.082  0.00  0.00    +0.000 C 
ATOM     17  N   UNL     1       2.498   0.060   0.139  0.00  0.00    +0.000 NA
ATOM     18  C   UNL     1       2.952   0.094   1.528  0.00  0.00    +0.000 C 
ENDBRANCH  15  17
ENDBRANCH  14  15
ENDBRANCH   1  14
TORSDOF 5
