REMARK  Name = Phenformin
REMARK  3 active torsions:
REMARK  status: ('A' for Active; 'I' for Inactive)
REMARK    1  A    between atoms: N_7  and  C_8
REMARK    2  A    between atoms: C_8  and  C_9
REMARK    3  A    between atoms: C_9  and  C_10
REMARK                            x       y       z     vdW  Elec       q    Type
REMARK                         _______ _______ _______ _____ _____    ______ ____
ROOT
ATOM      1  N   UNL     1       1.141   0.031  -0.021  0.00  0.00    +0.000 N 
ATOM      2  C   UNL     1       2.485  -0.049   0.065  0.00  0.00    +0.000 C 
ATOM      3  N   UNL     1       3.024  -0.853   0.918  0.00  0.00    +0.000 NA
ATOM      4  N   UNL     1       3.238   0.739  -0.771  0.00  0.00    +0.000 N 
ATOM      5  C   UNL     1       4.607   0.811  -0.839  0.00  0.00    +0.000 C 
ATOM      6  N   UNL     1       5.374   0.090  -0.079  0.00  0.00    +0.000 NA
ATOM      7  N   UNL     1       5.185   1.680  -1.727  0.00  0.00    +0.000 N 
ATOM      8  H   UNL     1       0.576  -0.544   0.591  0.00  0.00    +0.000 HD
ATOM      9  H   UNL     1       0.638   0.629  -0.655  0.00  0.00    +0.000 HD
ATOM     10  H   UNL     1       2.313  -1.354   1.451  0.00  0.00    +0.000 HD
ATOM     11  H   UNL     1       2.736   1.335  -1.402  0.00  0.00    +0.000 HD
ATOM     12  H   UNL     1       4.723  -0.473   0.508  0.00  0.00    +0.000 HD
ATOM     13  H   UNL     1       4.662   2.234  -2.384  0.00  0.00    +0.000 HD
ENDROOT
BRANCH   7  14
ATOM     14  C   UNL     1       6.649   1.717  -1.786  0.00  0.00    +0.000 C 
BRANCH  14  15
ATOM     15  C   UNL     1       7.265   2.690  -2.797  0.00  0.00    +0.000 C 
BRANCH  15  16
ATOM     16  C   UNL     1       8.793   2.663  -2.815  0.00  0.00    +0.000 A 
ATOM     17  C   UNL     1       9.503   3.519  -3.673  0.00  0.00    +0.000 A 
ATOM     18  C   UNL     1      10.896   3.415  -3.794  0.00  0.00    +0.000 A 
ATOM     19  C   UNL     1      11.606   2.501  -3.018  0.00  0.00    +0.000 A 
ATOM     20  C   UNL     1      10.925   1.677  -2.133  0.00  0.00    +0.000 A 
ATOM     21  C   UNL     1       9.536   1.756  -2.038  0.00  0.00    +0.000 A 
ENDBRANCH  15  16
ENDBRANCH  14  15
ENDBRANCH   7  14
TORSDOF 3
