REMARK  Name = Phenindamine
REMARK  2 active torsions:
REMARK  status: ('A' for Active; 'I' for Inactive)
REMARK    1  A    between atoms: C_1  and  N_2
REMARK    2  A    between atoms: C_8  and  C_15
REMARK                            x       y       z     vdW  Elec       q    Type
REMARK                         _______ _______ _______ _____ _____    ______ ____
ROOT
ATOM      1  C   UNL     1       0.847  -0.047   0.083  0.00  0.00    +0.000 C 
ATOM      2  N   UNL     1       2.308  -0.035   0.034  0.00  0.00    +0.000 NA
ATOM      3  C   UNL     1       2.782   1.239  -0.537  0.00  0.00    +0.000 C 
ATOM      4  C   UNL     1       3.685   1.284  -1.780  0.00  0.00    +0.000 C 
ATOM      5  C   UNL     1       4.089  -0.040  -2.259  0.00  0.00    +0.000 C 
ATOM      6  C   UNL     1       3.695  -1.200  -1.713  0.00  0.00    +0.000 C 
ATOM      7  C   UNL     1       2.800  -1.300  -0.537  0.00  0.00    +0.000 C 
ATOM      8  C   UNL     1       4.182  -2.405  -2.505  0.00  0.00    +0.000 C 
ATOM      9  C   UNL     1       4.998  -1.719  -3.576  0.00  0.00    +0.000 A 
ATOM     10  C   UNL     1       5.718  -2.276  -4.618  0.00  0.00    +0.000 A 
ATOM     11  C   UNL     1       6.341  -1.409  -5.518  0.00  0.00    +0.000 A 
ATOM     12  C   UNL     1       6.232  -0.015  -5.371  0.00  0.00    +0.000 A 
ATOM     13  C   UNL     1       5.504   0.536  -4.316  0.00  0.00    +0.000 A 
ATOM     14  C   UNL     1       4.903  -0.328  -3.421  0.00  0.00    +0.000 A 
ENDROOT
BRANCH   8  15
ATOM     15  C   UNL     1       3.025  -3.211  -3.066  0.00  0.00    +0.000 A 
ATOM     16  C   UNL     1       2.045  -2.601  -3.871  0.00  0.00    +0.000 A 
ATOM     17  C   UNL     1       0.883  -3.284  -4.214  0.00  0.00    +0.000 A 
ATOM     18  C   UNL     1       0.740  -4.621  -3.856  0.00  0.00    +0.000 A 
ATOM     19  C   UNL     1       1.762  -5.274  -3.167  0.00  0.00    +0.000 A 
ATOM     20  C   UNL     1       2.880  -4.562  -2.731  0.00  0.00    +0.000 A 
ENDBRANCH   8  15
TORSDOF 1
