REMARK  Name = Phenyl aminosalicylate
REMARK  5 active torsions:
REMARK  status: ('A' for Active; 'I' for Inactive)
REMARK    1  A    between atoms: N_1  and  C_2
REMARK    2  A    between atoms: C_4  and  O_5
REMARK    3  A    between atoms: C_6  and  C_9
REMARK    4  A    between atoms: C_9  and  O_11
REMARK    5  A    between atoms: O_11  and  C_12
REMARK                            x       y       z     vdW  Elec       q    Type
REMARK                         _______ _______ _______ _____ _____    ______ ____
ROOT
ATOM      1  C   UNL     1      -1.224   0.313  -0.011  0.00  0.00    +0.000 A 
ATOM      2  C   UNL     1       0.007   0.962   0.014  0.00  0.00    +0.000 A 
ATOM      3  C   UNL     1       1.202   0.230   0.004  0.00  0.00    +0.000 A 
ATOM      4  C   UNL     1       1.205  -1.179  -0.012  0.00  0.00    +0.000 A 
ATOM      5  C   UNL     1      -0.038  -1.829  -0.013  0.00  0.00    +0.000 A 
ATOM      6  C   UNL     1      -1.236  -1.085  -0.012  0.00  0.00    +0.000 A 
ENDROOT
BRANCH   1   7
ATOM      7  N   UNL     1      -2.399   1.041   0.029  0.00  0.00    +0.000 N 
ATOM      8  H   UNL     1      -2.382   2.052  -0.011  0.00  0.00    +0.000 HD
ATOM      9  H   UNL     1      -3.296   0.584  -0.063  0.00  0.00    +0.000 HD
ENDBRANCH   1   7
BRANCH   3  10
ATOM     10  O   UNL     1       2.377   0.932   0.005  0.00  0.00    +0.000 OA
ATOM     11  H   UNL     1       2.212   1.886  -0.017  0.00  0.00    +0.000 HD
ENDBRANCH   3  10
BRANCH   4  12
ATOM     12  C   UNL     1       2.516  -1.917  -0.029  0.00  0.00    +0.000 C 
ATOM     13  O   UNL     1       3.601  -1.343  -0.014  0.00  0.00    +0.000 OA
BRANCH  12  14
ATOM     14  O   UNL     1       2.368  -3.302  -0.070  0.00  0.00    +0.000 OA
BRANCH  14  15
ATOM     15  C   UNL     1       3.552  -4.079   0.051  0.00  0.00    +0.000 A 
ATOM     16  C   UNL     1       3.672  -5.233  -0.727  0.00  0.00    +0.000 A 
ATOM     17  C   UNL     1       4.788  -6.066  -0.566  0.00  0.00    +0.000 A 
ATOM     18  C   UNL     1       5.811  -5.714   0.318  0.00  0.00    +0.000 A 
ATOM     19  C   UNL     1       5.692  -4.561   1.088  0.00  0.00    +0.000 A 
ATOM     20  C   UNL     1       4.551  -3.763   0.978  0.00  0.00    +0.000 A 
ENDBRANCH  14  15
ENDBRANCH  12  14
ENDBRANCH   4  12
TORSDOF 5
