REMARK  Name = Phenylethyl resorcinol
REMARK  5 active torsions:
REMARK  status: ('A' for Active; 'I' for Inactive)
REMARK    1  A    between atoms: C_1  and  C_2
REMARK    2  A    between atoms: C_2  and  C_3
REMARK    3  A    between atoms: C_2  and  C_9
REMARK    4  A    between atoms: C_12  and  O_13
REMARK    5  A    between atoms: C_15  and  O_16
REMARK                            x       y       z     vdW  Elec       q    Type
REMARK                         _______ _______ _______ _____ _____    ______ ____
ROOT
ATOM      1  C   UNL     1       2.971  -0.213  -1.391  0.00  0.00    +0.000 A 
ATOM      2  C   UNL     1       2.872  -1.422  -2.093  0.00  0.00    +0.000 A 
ATOM      3  C   UNL     1       3.568  -1.659  -3.267  0.00  0.00    +0.000 A 
ATOM      4  C   UNL     1       4.131  -0.585  -3.917  0.00  0.00    +0.000 A 
ATOM      5  C   UNL     1       4.074   0.692  -3.364  0.00  0.00    +0.000 A 
ATOM      6  C   UNL     1       3.518   0.866  -2.090  0.00  0.00    +0.000 A 
ENDROOT
BRANCH   1   8
ATOM      7  C   UNL     1       0.939   0.002   0.077  0.00  0.00    +0.000 C 
ATOM      8  C   UNL     1       2.470  -0.079   0.048  0.00  0.00    +0.000 C 
BRANCH   8   9
ATOM      9  C   UNL     1       2.934  -1.164   1.041  0.00  0.00    +0.000 A 
ATOM     10  C   UNL     1       2.838  -2.538   0.774  0.00  0.00    +0.000 A 
ATOM     11  C   UNL     1       3.014  -3.518   1.735  0.00  0.00    +0.000 A 
ATOM     12  C   UNL     1       3.376  -3.147   3.017  0.00  0.00    +0.000 A 
ATOM     13  C   UNL     1       3.558  -1.797   3.310  0.00  0.00    +0.000 A 
ATOM     14  C   UNL     1       3.333  -0.809   2.341  0.00  0.00    +0.000 A 
ENDBRANCH   8   9
ENDBRANCH   1   8
BRANCH   4  15
ATOM     15  O   UNL     1       4.682  -0.753  -5.151  0.00  0.00    +0.000 OA
ATOM     16  H   UNL     1       4.504  -1.669  -5.429  0.00  0.00    +0.000 HD
ENDBRANCH   4  15
BRANCH   6  17
ATOM     17  O   UNL     1       3.449   2.115  -1.537  0.00  0.00    +0.000 OA
ATOM     18  H   UNL     1       3.743   2.766  -2.194  0.00  0.00    +0.000 HD
ENDBRANCH   6  17
TORSDOF 4
