REMARK  Name = Phenacemide
REMARK  2 active torsions:
REMARK  status: ('A' for Active; 'I' for Inactive)
REMARK    1  A    between atoms: C_5  and  C_7
REMARK    2  A    between atoms: C_7  and  C_8
REMARK                            x       y       z     vdW  Elec       q    Type
REMARK                         _______ _______ _______ _____ _____    ______ ____
ROOT
ATOM      1  N   UNL     1       1.079   0.180   0.060  0.00  0.00    +0.000 N 
ATOM      2  C   UNL     1       2.425   0.075  -0.032  0.00  0.00    +0.000 C 
ATOM      3  O   UNL     1       2.854  -0.824  -0.753  0.00  0.00    +0.000 OA
ATOM      4  N   UNL     1       3.153   0.971   0.704  0.00  0.00    +0.000 N 
ATOM      5  C   UNL     1       4.534   0.982   0.624  0.00  0.00    +0.000 C 
ATOM      6  O   UNL     1       5.148   0.236  -0.140  0.00  0.00    +0.000 OA
ATOM      7  H   UNL     1       0.579  -0.499  -0.505  0.00  0.00    +0.000 HD
ATOM      8  H   UNL     1       0.546   0.844   0.594  0.00  0.00    +0.000 HD
ATOM      9  H   UNL     1       2.663   1.642   1.272  0.00  0.00    +0.000 HD
ENDROOT
BRANCH   5  10
ATOM     10  C   UNL     1       5.290   1.981   1.518  0.00  0.00    +0.000 C 
BRANCH  10  11
ATOM     11  C   UNL     1       6.812   1.833   1.448  0.00  0.00    +0.000 A 
ATOM     12  C   UNL     1       7.413   0.560   1.466  0.00  0.00    +0.000 A 
ATOM     13  C   UNL     1       8.798   0.403   1.445  0.00  0.00    +0.000 A 
ATOM     14  C   UNL     1       9.618   1.521   1.379  0.00  0.00    +0.000 A 
ATOM     15  C   UNL     1       9.049   2.795   1.372  0.00  0.00    +0.000 A 
ATOM     16  C   UNL     1       7.656   2.953   1.415  0.00  0.00    +0.000 A 
ENDBRANCH  10  11
ENDBRANCH   5  10
TORSDOF 2
