REMARK  Name = Phenyl salicylate
REMARK  4 active torsions:
REMARK  status: ('A' for Active; 'I' for Inactive)
REMARK    1  A    between atoms: O_1  and  C_2
REMARK    2  A    between atoms: C_7  and  C_8
REMARK    3  A    between atoms: C_8  and  O_10
REMARK    4  A    between atoms: O_10  and  C_11
REMARK                            x       y       z     vdW  Elec       q    Type
REMARK                         _______ _______ _______ _____ _____    ______ ____
ROOT
ATOM      1  C   UNL     1       0.863  -2.551  -0.022  0.00  0.00    +0.000 C 
ATOM      2  O   UNL     1       0.177  -3.578  -0.067  0.00  0.00    +0.000 OA
ENDROOT
BRANCH   1   8
ATOM      3  C   UNL     1       0.868   0.031  -0.269  0.00  0.00    +0.000 A 
ATOM      4  C   UNL     1       0.185   1.238  -0.101  0.00  0.00    +0.000 A 
ATOM      5  C   UNL     1      -1.200   1.239   0.001  0.00  0.00    +0.000 A 
ATOM      6  C   UNL     1      -1.896   0.033  -0.010  0.00  0.00    +0.000 A 
ATOM      7  C   UNL     1      -1.197  -1.178  -0.041  0.00  0.00    +0.000 A 
ATOM      8  C   UNL     1       0.207  -1.202  -0.146  0.00  0.00    +0.000 A 
BRANCH   3   9
ATOM      9  O   UNL     1       2.197   0.121  -0.570  0.00  0.00    +0.000 OA
ATOM     10  H   UNL     1       2.582   0.866  -0.072  0.00  0.00    +0.000 HD
ENDBRANCH   3   9
ENDBRANCH   1   8
BRANCH   1  11
ATOM     11  O   UNL     1       2.238  -2.658   0.185  0.00  0.00    +0.000 OA
BRANCH  11  12
ATOM     12  C   UNL     1       3.010  -1.885   1.087  0.00  0.00    +0.000 A 
ATOM     13  C   UNL     1       4.392  -1.921   0.918  0.00  0.00    +0.000 A 
ATOM     14  C   UNL     1       5.184  -1.058   1.675  0.00  0.00    +0.000 A 
ATOM     15  C   UNL     1       4.589  -0.138   2.544  0.00  0.00    +0.000 A 
ATOM     16  C   UNL     1       3.207  -0.123   2.711  0.00  0.00    +0.000 A 
ATOM     17  C   UNL     1       2.423  -1.052   2.041  0.00  0.00    +0.000 A 
ENDBRANCH  11  12
ENDBRANCH   1  11
TORSDOF 4
