REMARK  Name = Phensuximide
REMARK  2 active torsions:
REMARK  status: ('A' for Active; 'I' for Inactive)
REMARK    1  A    between atoms: C_1  and  N_2
REMARK    2  A    between atoms: C_6  and  C_9
REMARK                            x       y       z     vdW  Elec       q    Type
REMARK                         _______ _______ _______ _____ _____    ______ ____
ROOT
ATOM      1  C   UNL     1       1.094   0.061   0.161  0.00  0.00    +0.000 C 
ATOM      2  N   UNL     1       2.530   0.066   0.019  0.00  0.00    +0.000 N 
ATOM      3  C   UNL     1       3.317   1.173   0.074  0.00  0.00    +0.000 C 
ATOM      4  O   UNL     1       3.083   2.233   0.638  0.00  0.00    +0.000 OA
ATOM      5  C   UNL     1       4.545   0.870  -0.723  0.00  0.00    +0.000 C 
ATOM      6  C   UNL     1       4.676  -0.644  -0.550  0.00  0.00    +0.000 C 
ATOM      7  C   UNL     1       3.299  -1.058  -0.062  0.00  0.00    +0.000 C 
ATOM      8  O   UNL     1       2.957  -2.196   0.223  0.00  0.00    +0.000 OA
ENDROOT
BRANCH   6   9
ATOM      9  C   UNL     1       5.039  -1.344  -1.840  0.00  0.00    +0.000 A 
ATOM     10  C   UNL     1       6.201  -2.118  -1.922  0.00  0.00    +0.000 A 
ATOM     11  C   UNL     1       6.564  -2.715  -3.130  0.00  0.00    +0.000 A 
ATOM     12  C   UNL     1       5.728  -2.614  -4.241  0.00  0.00    +0.000 A 
ATOM     13  C   UNL     1       4.556  -1.869  -4.166  0.00  0.00    +0.000 A 
ATOM     14  C   UNL     1       4.218  -1.230  -2.976  0.00  0.00    +0.000 A 
ENDBRANCH   6   9
TORSDOF 1
