REMARK  Name = Phenelzine
REMARK  4 active torsions:
REMARK  status: ('A' for Active; 'I' for Inactive)
REMARK    1  A    between atoms: N_1  and  N_2
REMARK    2  A    between atoms: N_2  and  C_3
REMARK    3  A    between atoms: C_3  and  C_4
REMARK    4  A    between atoms: C_4  and  C_5
REMARK                            x       y       z     vdW  Elec       q    Type
REMARK                         _______ _______ _______ _____ _____    ______ ____
ROOT
ATOM      1  C   UNL     1       4.534   1.060   0.959  0.00  0.00    +0.000 C 
ENDROOT
BRANCH   1   2
ATOM      2  C   UNL     1       4.984   2.166   1.882  0.00  0.00    +0.000 A 
ATOM      3  C   UNL     1       5.366   1.882   3.200  0.00  0.00    +0.000 A 
ATOM      4  C   UNL     1       5.528   2.923   4.115  0.00  0.00    +0.000 A 
ATOM      5  C   UNL     1       5.360   4.245   3.711  0.00  0.00    +0.000 A 
ATOM      6  C   UNL     1       5.043   4.538   2.384  0.00  0.00    +0.000 A 
ATOM      7  C   UNL     1       4.860   3.500   1.474  0.00  0.00    +0.000 A 
ENDBRANCH   1   2
BRANCH   1   8
ATOM      8  C   UNL     1       2.997   1.033   0.938  0.00  0.00    +0.000 C 
BRANCH   8   9
ATOM      9  N   UNL     1       2.500   0.012   0.007  0.00  0.00    +0.000 NA
ATOM     10  H   UNL     1       2.881   0.195  -0.926  0.00  0.00    +0.000 HD
BRANCH   9  11
ATOM     11  N   UNL     1       1.059   0.026   0.035  0.00  0.00    +0.000 NA
ATOM     12  H   UNL     1       0.667  -0.712  -0.555  0.00  0.00    +0.000 HD
ATOM     13  H   UNL     1       0.662   0.909  -0.298  0.00  0.00    +0.000 HD
ENDBRANCH   9  11
ENDBRANCH   8   9
ENDBRANCH   1   8
TORSDOF 4
