REMARK  Name = Phenylbutyric acid
REMARK  5 active torsions:
REMARK  status: ('A' for Active; 'I' for Inactive)
REMARK    1  A    between atoms: O_1  and  C_2
REMARK    2  A    between atoms: C_2  and  C_4
REMARK    3  A    between atoms: C_4  and  C_5
REMARK    4  A    between atoms: C_5  and  C_6
REMARK    5  A    between atoms: C_6  and  C_7
REMARK                            x       y       z     vdW  Elec       q    Type
REMARK                         _______ _______ _______ _____ _____    ______ ____
ROOT
ATOM      1  C   UNL     1       5.368   1.293  -2.051  0.00  0.00    +0.000 C 
ENDROOT
BRANCH   1   2
ATOM      2  C   UNL     1       6.853   1.169  -1.808  0.00  0.00    +0.000 A 
ATOM      3  C   UNL     1       7.458  -0.091  -1.688  0.00  0.00    +0.000 A 
ATOM      4  C   UNL     1       8.789  -0.200  -1.287  0.00  0.00    +0.000 A 
ATOM      5  C   UNL     1       9.556   0.948  -1.103  0.00  0.00    +0.000 A 
ATOM      6  C   UNL     1       8.981   2.205  -1.277  0.00  0.00    +0.000 A 
ATOM      7  C   UNL     1       7.633   2.317  -1.619  0.00  0.00    +0.000 A 
ENDBRANCH   1   2
BRANCH   1   8
ATOM      8  C   UNL     1       4.583   0.632  -0.915  0.00  0.00    +0.000 C 
BRANCH   8   9
ATOM      9  C   UNL     1       3.070   0.751  -1.093  0.00  0.00    +0.000 C 
BRANCH   9  10
ATOM     10  C   UNL     1       2.363   0.054   0.049  0.00  0.00    +0.000 C 
ATOM     11  O   UNL     1       2.927  -0.513   0.976  0.00  0.00    +0.000 OA
BRANCH  10  12
ATOM     12  O   UNL     1       1.016   0.103  -0.033  0.00  0.00    +0.000 OA
ATOM     13  H   UNL     1       0.661   0.576  -0.808  0.00  0.00    +0.000 HD
ENDBRANCH  10  12
ENDBRANCH   9  10
ENDBRANCH   8   9
ENDBRANCH   1   8
TORSDOF 5
