REMARK  Name = Phenylbutazone
REMARK  6 active torsions:
REMARK  status: ('A' for Active; 'I' for Inactive)
REMARK    1  A    between atoms: C_1  and  C_2
REMARK    2  A    between atoms: C_2  and  C_3
REMARK    3  A    between atoms: C_3  and  C_4
REMARK    4  A    between atoms: C_4  and  C_5
REMARK    5  A    between atoms: N_8  and  C_18
REMARK    6  A    between atoms: N_9  and  C_12
REMARK                            x       y       z     vdW  Elec       q    Type
REMARK                         _______ _______ _______ _____ _____    ______ ____
ROOT
ATOM      1  C   UNL     1       5.041  -1.501  -2.567  0.00  0.00    +0.000 C 
ATOM      2  C   UNL     1       6.554  -1.553  -2.750  0.00  0.00    +0.000 C 
ATOM      3  O   UNL     1       7.334  -0.655  -2.451  0.00  0.00    +0.000 OA
ATOM      4  N   UNL     1       6.829  -2.759  -3.445  0.00  0.00    +0.000 N 
ATOM      5  N   UNL     1       5.675  -3.572  -3.430  0.00  0.00    +0.000 N 
ATOM      6  C   UNL     1       4.651  -2.954  -2.699  0.00  0.00    +0.000 C 
ATOM      7  O   UNL     1       3.635  -3.475  -2.250  0.00  0.00    +0.000 OA
ENDROOT
BRANCH   5   8
ATOM      8  C   UNL     1       5.759  -4.988  -3.501  0.00  0.00    +0.000 A 
ATOM      9  C   UNL     1       6.860  -5.714  -3.025  0.00  0.00    +0.000 A 
ATOM     10  C   UNL     1       6.988  -7.077  -3.326  0.00  0.00    +0.000 A 
ATOM     11  C   UNL     1       5.997  -7.731  -4.057  0.00  0.00    +0.000 A 
ATOM     12  C   UNL     1       4.876  -7.024  -4.485  0.00  0.00    +0.000 A 
ATOM     13  C   UNL     1       4.749  -5.665  -4.191  0.00  0.00    +0.000 A 
ENDBRANCH   5   8
BRANCH   4  14
ATOM     14  C   UNL     1       7.706  -2.737  -4.584  0.00  0.00    +0.000 A 
ATOM     15  C   UNL     1       9.074  -2.522  -4.381  0.00  0.00    +0.000 A 
ATOM     16  C   UNL     1       9.973  -2.481  -5.457  0.00  0.00    +0.000 A 
ATOM     17  C   UNL     1       9.526  -2.694  -6.759  0.00  0.00    +0.000 A 
ATOM     18  C   UNL     1       8.170  -2.913  -6.985  0.00  0.00    +0.000 A 
ATOM     19  C   UNL     1       7.264  -2.943  -5.906  0.00  0.00    +0.000 A 
ENDBRANCH   4  14
BRANCH   1  20
ATOM     20  C   UNL     1       4.514  -0.763  -1.330  0.00  0.00    +0.000 C 
BRANCH  20  21
ATOM     21  C   UNL     1       2.977  -0.675  -1.310  0.00  0.00    +0.000 C 
BRANCH  21  23
ATOM     22  C   UNL     1       0.921   0.008  -0.051  0.00  0.00    +0.000 C 
ATOM     23  C   UNL     1       2.443   0.014  -0.056  0.00  0.00    +0.000 C 
ENDBRANCH  21  23
ENDBRANCH  20  21
ENDBRANCH   1  20
TORSDOF 5
