REMARK  Name = Phenylacetic acid
REMARK  3 active torsions:
REMARK  status: ('A' for Active; 'I' for Inactive)
REMARK    1  A    between atoms: O_1  and  C_2
REMARK    2  A    between atoms: C_2  and  C_4
REMARK    3  A    between atoms: C_4  and  C_5
REMARK                            x       y       z     vdW  Elec       q    Type
REMARK                         _______ _______ _______ _____ _____    ______ ____
ROOT
ATOM      1  C   UNL     1       4.594  -0.859   0.712  0.00  0.00    +0.000 A 
ATOM      2  C   UNL     1       5.471  -1.954   0.677  0.00  0.00    +0.000 A 
ATOM      3  C   UNL     1       6.856  -1.748   0.693  0.00  0.00    +0.000 A 
ATOM      4  C   UNL     1       7.379  -0.455   0.663  0.00  0.00    +0.000 A 
ATOM      5  C   UNL     1       6.521   0.636   0.685  0.00  0.00    +0.000 A 
ATOM      6  C   UNL     1       5.146   0.432   0.750  0.00  0.00    +0.000 A 
ENDROOT
BRANCH   1   7
ATOM      7  C   UNL     1       3.088  -1.040   0.787  0.00  0.00    +0.000 C 
BRANCH   7   8
ATOM      8  C   UNL     1       2.291  -0.039  -0.046  0.00  0.00    +0.000 C 
ATOM      9  O   UNL     1       2.762   0.806  -0.801  0.00  0.00    +0.000 OA
BRANCH   8  10
ATOM     10  O   UNL     1       0.950  -0.133   0.106  0.00  0.00    +0.000 OA
ATOM     11  H   UNL     1       0.636  -0.838   0.700  0.00  0.00    +0.000 HD
ENDBRANCH   8  10
ENDBRANCH   7   8
ENDBRANCH   1   7
TORSDOF 3
