REMARK  Name = Phenolphthalein
REMARK  4 active torsions:
REMARK  status: ('A' for Active; 'I' for Inactive)
REMARK    1  A    between atoms: O_1  and  C_2
REMARK    2  A    between atoms: C_5  and  C_8
REMARK    3  A    between atoms: C_8  and  C_18
REMARK    4  A    between atoms: C_21  and  O_22
REMARK                            x       y       z     vdW  Elec       q    Type
REMARK                         _______ _______ _______ _____ _____    ______ ____
ROOT
ATOM      1  C   UNL     1      -3.377   0.110  -0.075  0.00  0.00    +0.000 C 
ATOM      2  O   UNL     1      -3.930  -0.562   1.092  0.00  0.00    +0.000 OA
ATOM      3  C   UNL     1      -4.747  -1.602   0.755  0.00  0.00    +0.000 C 
ATOM      4  O   UNL     1      -5.344  -2.334   1.527  0.00  0.00    +0.000 OA
ATOM      5  C   UNL     1      -4.740  -1.706  -0.697  0.00  0.00    +0.000 A 
ATOM      6  C   UNL     1      -5.398  -2.603  -1.522  0.00  0.00    +0.000 A 
ATOM      7  C   UNL     1      -5.193  -2.491  -2.901  0.00  0.00    +0.000 A 
ATOM      8  C   UNL     1      -4.331  -1.513  -3.421  0.00  0.00    +0.000 A 
ATOM      9  C   UNL     1      -3.662  -0.641  -2.566  0.00  0.00    +0.000 A 
ATOM     10  C   UNL     1      -3.902  -0.735  -1.198  0.00  0.00    +0.000 A 
ENDROOT
BRANCH   1  14
ATOM     11  C   UNL     1       0.966  -0.060   0.017  0.00  0.00    +0.000 A 
ATOM     12  C   UNL     1       0.337   1.170  -0.007  0.00  0.00    +0.000 A 
ATOM     13  C   UNL     1      -1.047   1.211  -0.061  0.00  0.00    +0.000 A 
ATOM     14  C   UNL     1      -1.838   0.044  -0.019  0.00  0.00    +0.000 A 
ATOM     15  C   UNL     1      -1.167  -1.191   0.027  0.00  0.00    +0.000 A 
ATOM     16  C   UNL     1       0.230  -1.239   0.028  0.00  0.00    +0.000 A 
BRANCH  11  17
ATOM     17  O   UNL     1       2.325  -0.132   0.012  0.00  0.00    +0.000 OA
ATOM     18  H   UNL     1       2.668   0.777  -0.016  0.00  0.00    +0.000 HD
ENDBRANCH  11  17
ENDBRANCH   1  14
BRANCH   1  19
ATOM     19  C   UNL     1      -3.923   1.554  -0.073  0.00  0.00    +0.000 A 
ATOM     20  C   UNL     1      -3.609   2.435   0.989  0.00  0.00    +0.000 A 
ATOM     21  C   UNL     1      -3.856   3.807   0.880  0.00  0.00    +0.000 A 
ATOM     22  C   UNL     1      -4.495   4.296  -0.254  0.00  0.00    +0.000 A 
ATOM     23  C   UNL     1      -4.882   3.444  -1.273  0.00  0.00    +0.000 A 
ATOM     24  C   UNL     1      -4.598   2.088  -1.183  0.00  0.00    +0.000 A 
BRANCH  22  25
ATOM     25  O   UNL     1      -4.764   5.619  -0.427  0.00  0.00    +0.000 OA
ATOM     26  H   UNL     1      -4.472   6.105   0.359  0.00  0.00    +0.000 HD
ENDBRANCH  22  25
ENDBRANCH   1  19
TORSDOF 4
