REMARK  Name = Phenylalanine
REMARK  5 active torsions:
REMARK  status: ('A' for Active; 'I' for Inactive)
REMARK    1  A    between atoms: N_1  and  CA_2
REMARK    2  A    between atoms: CA_2  and  CB_3
REMARK    3  A    between atoms: CA_2  and  C_10
REMARK    4  A    between atoms: CB_3  and  CG_4
REMARK    5  A    between atoms: C_10  and  O_11
REMARK                            x       y       z     vdW  Elec       q    Type
REMARK                         _______ _______ _______ _____ _____    ______ ____
ROOT
ATOM      1  CA  PHE A   1       2.398   0.133   0.127  0.00  0.00    +0.000 C 
ENDROOT
BRANCH   1   2
ATOM      2  N   PHE A   1       0.901   0.147   0.187  0.00  0.00    +0.000 NA
ATOM      3  H1  PHE A   1       0.589  -0.401  -0.630  0.00  0.00    +0.000 HD
ATOM      4  H2  PHE A   1       0.572   1.086  -0.047  0.00  0.00    +0.000 HD
ENDBRANCH   1   2
BRANCH   1   5
ATOM      5  C   PHE A   1       2.990   0.805   1.367  0.00  0.00    +0.000 C 
ATOM      6  OXT PHE A   1       4.194   0.930   1.569  0.00  0.00    +0.000 OA
BRANCH   5   7
ATOM      7  O   PHE A   1       2.052   1.258   2.233  0.00  0.00    +0.000 OA
ATOM      8  H   PHE A   1       1.170   0.957   1.914  0.00  0.00    +0.000 HD
ENDBRANCH   5   7
ENDBRANCH   1   5
BRANCH   1   9
ATOM      9  CB  PHE A   1       2.932   0.829  -1.143  0.00  0.00    +0.000 C 
BRANCH   9  10
ATOM     10  CG  PHE A   1       2.498   0.122  -2.409  0.00  0.00    +0.000 A 
ATOM     11  CD1 PHE A   1       1.756   0.778  -3.400  0.00  0.00    +0.000 A 
ATOM     12  CE1 PHE A   1       1.277   0.064  -4.502  0.00  0.00    +0.000 A 
ATOM     13  CZ  PHE A   1       1.598  -1.284  -4.659  0.00  0.00    +0.000 A 
ATOM     14  CE2 PHE A   1       2.363  -1.934  -3.695  0.00  0.00    +0.000 A 
ATOM     15  CD2 PHE A   1       2.811  -1.234  -2.579  0.00  0.00    +0.000 A 
ENDBRANCH   9  10
ENDBRANCH   1   9
TORSDOF 5
