REMARK  Name = Phenazopyridine
REMARK  3 active torsions:
REMARK  status: ('A' for Active; 'I' for Inactive)
REMARK    1  A    between atoms: C_4  and  N_5
REMARK    2  A    between atoms: C_6  and  N_9
REMARK    3  A    between atoms: N_10  and  C_11
REMARK                            x       y       z     vdW  Elec       q    Type
REMARK                         _______ _______ _______ _____ _____    ______ ____
ROOT
ATOM      1  N   UNL     1       1.127  -0.119  -0.289  0.00  0.00    +0.000 N 
ATOM      2  C   UNL     1       2.507  -0.121  -0.069  0.00  0.00    +0.000 A 
ATOM      3  N   UNL     1       3.135  -1.315  -0.008  0.00  0.00    +0.000 NA
ATOM      4  C   UNL     1       4.494  -1.321   0.103  0.00  0.00    +0.000 A 
ATOM      5  C   UNL     1       5.277  -0.157   0.239  0.00  0.00    +0.000 A 
ATOM      6  C   UNL     1       4.578   1.057   0.202  0.00  0.00    +0.000 A 
ATOM      7  C   UNL     1       3.199   1.070  -0.034  0.00  0.00    +0.000 A 
ATOM      8  H   UNL     1       0.721  -1.010  -0.034  0.00  0.00    +0.000 HD
ATOM      9  H   UNL     1       0.623   0.690   0.052  0.00  0.00    +0.000 HD
ENDROOT
BRANCH   4  10
ATOM     10  N   UNL     1       5.083  -2.593   0.186  0.00  0.00    +0.000 N 
ATOM     11  H   UNL     1       4.477  -3.317  -0.167  0.00  0.00    +0.000 HD
ATOM     12  H   UNL     1       6.034  -2.586  -0.178  0.00  0.00    +0.000 HD
ENDBRANCH   4  10
BRANCH   5  13
ATOM     13  N   UNL     1       6.703  -0.093   0.356  0.00  0.00    +0.000 NA
ATOM     14  N   UNL     1       7.279  -1.163   0.053  0.00  0.00    +0.000 NA
BRANCH  14  15
ATOM     15  C   UNL     1       8.687  -1.084   0.062  0.00  0.00    +0.000 A 
ATOM     16  C   UNL     1       9.391  -1.755  -0.950  0.00  0.00    +0.000 A 
ATOM     17  C   UNL     1      10.777  -1.621  -1.072  0.00  0.00    +0.000 A 
ATOM     18  C   UNL     1      11.496  -0.954  -0.085  0.00  0.00    +0.000 A 
ATOM     19  C   UNL     1      10.823  -0.387   0.996  0.00  0.00    +0.000 A 
ATOM     20  C   UNL     1       9.424  -0.413   1.044  0.00  0.00    +0.000 A 
ENDBRANCH  14  15
ENDBRANCH   5  13
TORSDOF 3
