REMARK  Name = Phenmetrazine
REMARK  2 active torsions:
REMARK  status: ('A' for Active; 'I' for Inactive)
REMARK    1  A    between atoms: C_1  and  C_2
REMARK    2  A    between atoms: C_7  and  C_8
REMARK                            x       y       z     vdW  Elec       q    Type
REMARK                         _______ _______ _______ _____ _____    ______ ____
ROOT
ATOM      1  C   UNL     1       1.040   0.079   0.054  0.00  0.00    +0.000 C 
ATOM      2  C   UNL     1       2.570  -0.028  -0.012  0.00  0.00    +0.000 C 
ATOM      3  N   UNL     1       2.949  -1.417  -0.351  0.00  0.00    +0.000 NA
ATOM      4  C   UNL     1       2.604  -1.722  -1.750  0.00  0.00    +0.000 C 
ATOM      5  C   UNL     1       3.043  -0.653  -2.777  0.00  0.00    +0.000 C 
ATOM      6  O   UNL     1       2.741   0.690  -2.370  0.00  0.00    +0.000 OA
ATOM      7  C   UNL     1       3.176   0.992  -1.021  0.00  0.00    +0.000 C 
ATOM      8  H   UNL     1       2.529  -2.080   0.294  0.00  0.00    +0.000 HD
ENDROOT
BRANCH   7   9
ATOM      9  C   UNL     1       4.698   1.118  -0.931  0.00  0.00    +0.000 A 
ATOM     10  C   UNL     1       5.318   2.355  -0.705  0.00  0.00    +0.000 A 
ATOM     11  C   UNL     1       6.713   2.460  -0.794  0.00  0.00    +0.000 A 
ATOM     12  C   UNL     1       7.500   1.347  -1.085  0.00  0.00    +0.000 A 
ATOM     13  C   UNL     1       6.906   0.107  -1.248  0.00  0.00    +0.000 A 
ATOM     14  C   UNL     1       5.531   0.005  -1.123  0.00  0.00    +0.000 A 
ENDBRANCH   7   9
TORSDOF 1
