REMARK  Name = Phenindione
REMARK  1 active torsions:
REMARK  status: ('A' for Active; 'I' for Inactive)
REMARK    1  A    between atoms: C_3  and  C_12
REMARK                            x       y       z     vdW  Elec       q    Type
REMARK                         _______ _______ _______ _____ _____    ______ ____
ROOT
ATOM      1  O   UNL     1       1.470   2.369   0.006  0.00  0.00    +0.000 OA
ATOM      2  C   UNL     1       1.174   1.192  -0.059  0.00  0.00    +0.000 C 
ATOM      3  C   UNL     1       2.105  -0.007  -0.143  0.00  0.00    +0.000 C 
ATOM      4  C   UNL     1       1.148  -1.194  -0.070  0.00  0.00    +0.000 C 
ATOM      5  O   UNL     1       1.418  -2.378  -0.009  0.00  0.00    +0.000 OA
ATOM      6  C   UNL     1      -0.222  -0.683  -0.053  0.00  0.00    +0.000 A 
ATOM      7  C   UNL     1      -1.406  -1.397  -0.018  0.00  0.00    +0.000 A 
ATOM      8  C   UNL     1      -2.597  -0.668   0.015  0.00  0.00    +0.000 A 
ATOM      9  C   UNL     1      -2.581   0.741   0.013  0.00  0.00    +0.000 A 
ATOM     10  C   UNL     1      -1.373   1.444  -0.020  0.00  0.00    +0.000 A 
ATOM     11  C   UNL     1      -0.206   0.705  -0.051  0.00  0.00    +0.000 A 
ENDROOT
BRANCH   3  12
ATOM     12  C   UNL     1       3.133  -0.040   0.958  0.00  0.00    +0.000 A 
ATOM     13  C   UNL     1       4.501  -0.067   0.655  0.00  0.00    +0.000 A 
ATOM     14  C   UNL     1       5.437  -0.261   1.670  0.00  0.00    +0.000 A 
ATOM     15  C   UNL     1       5.022  -0.338   2.999  0.00  0.00    +0.000 A 
ATOM     16  C   UNL     1       3.669  -0.260   3.315  0.00  0.00    +0.000 A 
ATOM     17  C   UNL     1       2.729  -0.116   2.300  0.00  0.00    +0.000 A 
ENDBRANCH   3  12
TORSDOF 1
