REMARK  Name = Phendimetrazine
REMARK  3 active torsions:
REMARK  status: ('A' for Active; 'I' for Inactive)
REMARK    1  A    between atoms: C_1  and  C_2
REMARK    2  A    between atoms: C_3  and  C_9
REMARK    3  A    between atoms: N_7  and  C_8
REMARK                            x       y       z     vdW  Elec       q    Type
REMARK                         _______ _______ _______ _____ _____    ______ ____
ROOT
ATOM      1  C   UNL     1       3.067   0.156   1.445  0.00  0.00    +0.000 C 
ATOM      2  C   UNL     1       2.610  -0.138   0.007  0.00  0.00    +0.000 C 
ATOM      3  C   UNL     1       3.132   0.950  -1.025  0.00  0.00    +0.000 C 
ATOM      4  O   UNL     1       2.749   0.571  -2.374  0.00  0.00    +0.000 OA
ATOM      5  C   UNL     1       3.192  -0.740  -2.722  0.00  0.00    +0.000 C 
ATOM      6  C   UNL     1       2.629  -1.784  -1.761  0.00  0.00    +0.000 C 
ATOM      7  N   UNL     1       3.064  -1.512  -0.378  0.00  0.00    +0.000 NA
ATOM      8  C   UNL     1       2.529  -2.556   0.499  0.00  0.00    +0.000 C 
ENDROOT
BRANCH   3   9
ATOM      9  C   UNL     1       2.569   2.354  -0.760  0.00  0.00    +0.000 A 
ATOM     10  C   UNL     1       2.820   3.028   0.449  0.00  0.00    +0.000 A 
ATOM     11  C   UNL     1       2.118   4.185   0.796  0.00  0.00    +0.000 A 
ATOM     12  C   UNL     1       1.297   4.797  -0.135  0.00  0.00    +0.000 A 
ATOM     13  C   UNL     1       1.144   4.229  -1.398  0.00  0.00    +0.000 A 
ATOM     14  C   UNL     1       1.756   3.006  -1.695  0.00  0.00    +0.000 A 
ENDBRANCH   3   9
TORSDOF 1
