REMARK  Name = Pheneticillin
REMARK  9 active torsions:
REMARK  status: ('A' for Active; 'I' for Inactive)
REMARK    1  A    between atoms: C_4  and  C_5
REMARK    2  A    between atoms: C_4  and  C_6
REMARK    3  A    between atoms: CA_7  and  C_24
REMARK    4  A    between atoms: CA_11  and  N_12
REMARK    5  A    between atoms: C_13  and  C_15
REMARK    6  A    between atoms: C_15  and  C_16
REMARK    7  A    between atoms: C_15  and  O_17
REMARK    8  A    between atoms: O_17  and  C_18
REMARK    9  A    between atoms: C_24  and  O_25
REMARK                            x       y       z     vdW  Elec       q    Type
REMARK                         _______ _______ _______ _____ _____    ______ ____
ROOT
ATOM      1  C   UNL     1       2.123   0.118  -0.054  0.00  0.00    +0.000 C 
ATOM      2  S   UNL     1       2.555  -1.139  -1.310  0.00  0.00    +0.000 S 
ATOM      3  C   UNL     1       2.898  -2.401   0.033  0.00  0.00    +0.000 C 
ATOM      4  C   UNL     1       3.838  -3.444  -0.576  0.00  0.00    +0.000 C 
ATOM      5  C   UNL     1       1.523  -2.991   0.400  0.00  0.00    +0.000 C 
ATOM      6  CA  UNL     1       3.583  -1.572   1.145  0.00  0.00    +0.000 C 
ATOM      7  N   UNL     1       2.959  -0.231   1.108  0.00  0.00    +0.000 N 
ATOM      8  C   UNL     1       3.726   0.902   0.997  0.00  0.00    +0.000 C 
ATOM      9  O   UNL     1       4.814   1.171   1.474  0.00  0.00    +0.000 OA
ATOM     10  CA  UNL     1       2.818   1.491  -0.115  0.00  0.00    +0.000 C 
ENDROOT
BRANCH  10  11
ATOM     11  N   UNL     1       3.488   1.871  -1.395  0.00  0.00    +0.000 N 
ATOM     12  C   UNL     1       4.070   3.126  -1.536  0.00  0.00    +0.000 C 
ATOM     13  O   UNL     1       4.052   3.932  -0.609  0.00  0.00    +0.000 OA
ATOM     14  H   UNL     1       3.494   1.213  -2.167  0.00  0.00    +0.000 HD
BRANCH  12  15
ATOM     15  C   UNL     1       4.674   3.435  -2.933  0.00  0.00    +0.000 C 
ATOM     16  C   UNL     1       3.535   3.250  -3.940  0.00  0.00    +0.000 C 
BRANCH  15  17
ATOM     17  O   UNL     1       5.258   4.760  -2.899  0.00  0.00    +0.000 OA
BRANCH  17  18
ATOM     18  C   UNL     1       5.866   5.243  -4.028  0.00  0.00    +0.000 A 
ATOM     19  C   UNL     1       7.101   5.882  -3.915  0.00  0.00    +0.000 A 
ATOM     20  C   UNL     1       7.680   6.494  -5.041  0.00  0.00    +0.000 A 
ATOM     21  C   UNL     1       7.087   6.375  -6.298  0.00  0.00    +0.000 A 
ATOM     22  C   UNL     1       5.853   5.761  -6.408  0.00  0.00    +0.000 A 
ATOM     23  C   UNL     1       5.226   5.288  -5.263  0.00  0.00    +0.000 A 
ENDBRANCH  17  18
ENDBRANCH  15  17
ENDBRANCH  12  15
ENDBRANCH  10  11
BRANCH   6  24
ATOM     24  C   UNL     1       3.623  -2.124   2.591  0.00  0.00    +0.000 C 
ATOM     25  OXT UNL     1       4.071  -1.479   3.532  0.00  0.00    +0.000 OA
BRANCH  24  26
ATOM     26  O   UNL     1       3.179  -3.374   2.833  0.00  0.00    +0.000 OA
ATOM     27  H   UNL     1       3.017  -3.998   2.109  0.00  0.00    +0.000 HD
ENDBRANCH  24  26
ENDBRANCH   6  24
TORSDOF 6
