REMARK  Name = Phenoxybenzamine
REMARK  9 active torsions:
REMARK  status: ('A' for Active; 'I' for Inactive)
REMARK    1  A    between atoms: C_1  and  C_2
REMARK    2  A    between atoms: C_2  and  C_3
REMARK    3  A    between atoms: C_2  and  N_11
REMARK    4  A    between atoms: C_3  and  O_4
REMARK    5  A    between atoms: O_4  and  C_5
REMARK    6  A    between atoms: N_11  and  C_12
REMARK    7  A    between atoms: N_11  and  C_15
REMARK    8  A    between atoms: C_12  and  C_13
REMARK    9  A    between atoms: C_15  and  C_16
REMARK                            x       y       z     vdW  Elec       q    Type
REMARK                         _______ _______ _______ _____ _____    ______ ____
ROOT
ATOM      1  N   UNL     1       3.014  -1.004   0.887  0.00  0.00    +0.000 NA
ENDROOT
BRANCH   1   3
ATOM      2  C   UNL     1       1.018   0.335  -0.003  0.00  0.00    +0.000 C 
ATOM      3  C   UNL     1       2.548   0.144   0.049  0.00  0.00    +0.000 C 
BRANCH   3   4
ATOM      4  C   UNL     1       3.106   1.503   0.538  0.00  0.00    +0.000 C 
BRANCH   4   5
ATOM      5  O   UNL     1       2.558   2.525  -0.299  0.00  0.00    +0.000 OA
BRANCH   5   6
ATOM      6  C   UNL     1       2.989   3.788  -0.059  0.00  0.00    +0.000 A 
ATOM      7  C   UNL     1       2.053   4.797  -0.259  0.00  0.00    +0.000 A 
ATOM      8  C   UNL     1       2.443   6.131  -0.191  0.00  0.00    +0.000 A 
ATOM      9  C   UNL     1       3.769   6.447   0.120  0.00  0.00    +0.000 A 
ATOM     10  C   UNL     1       4.696   5.435   0.342  0.00  0.00    +0.000 A 
ATOM     11  C   UNL     1       4.315   4.102   0.243  0.00  0.00    +0.000 A 
ENDBRANCH   5   6
ENDBRANCH   4   5
ENDBRANCH   3   4
ENDBRANCH   1   3
BRANCH   1  12
ATOM     12  C   UNL     1       2.464  -2.320   0.445  0.00  0.00    +0.000 C 
BRANCH  12  13
ATOM     13  C   UNL     1       0.961  -2.592   0.518  0.00  0.00    +0.000 C 
ATOM     14 CL   UNL     1       0.599  -4.313   0.195  0.00  0.00    +0.000 Cl
ENDBRANCH  12  13
ENDBRANCH   1  12
BRANCH   1  15
ATOM     15  C   UNL     1       4.523  -1.068   0.913  0.00  0.00    +0.000 C 
BRANCH  15  16
ATOM     16  C   UNL     1       5.074  -2.123   1.857  0.00  0.00    +0.000 A 
ATOM     17  C   UNL     1       5.081  -3.471   1.471  0.00  0.00    +0.000 A 
ATOM     18  C   UNL     1       5.163  -4.472   2.431  0.00  0.00    +0.000 A 
ATOM     19  C   UNL     1       5.446  -4.139   3.754  0.00  0.00    +0.000 A 
ATOM     20  C   UNL     1       5.622  -2.804   4.115  0.00  0.00    +0.000 A 
ATOM     21  C   UNL     1       5.415  -1.794   3.177  0.00  0.00    +0.000 A 
ENDBRANCH  15  16
ENDBRANCH   1  15
TORSDOF 8
