REMARK  Name = Phentolamine
REMARK  6 active torsions:
REMARK  status: ('A' for Active; 'I' for Inactive)
REMARK    1  A    between atoms: C_1  and  C_2
REMARK    2  A    between atoms: C_5  and  N_8
REMARK    3  A    between atoms: N_8  and  C_9
REMARK    4  A    between atoms: N_8  and  C_15
REMARK    5  A    between atoms: C_9  and  C_10
REMARK    6  A    between atoms: C_17  and  O_18
REMARK                            x       y       z     vdW  Elec       q    Type
REMARK                         _______ _______ _______ _____ _____    ______ ____
ROOT
ATOM      1  N   UNL     1      -3.161   0.058  -0.113  0.00  0.00    +0.000 N 
ENDROOT
BRANCH   1   6
ATOM      2  C   UNL     1       2.601   0.121   0.029  0.00  0.00    +0.000 C 
ATOM      3  C   UNL     1       1.108   0.182   0.032  0.00  0.00    +0.000 A 
ATOM      4  C   UNL     1       0.412  -0.967  -0.202  0.00  0.00    +0.000 A 
ATOM      5  C   UNL     1      -0.938  -0.881  -0.531  0.00  0.00    +0.000 A 
ATOM      6  C   UNL     1      -1.754   0.181  -0.174  0.00  0.00    +0.000 A 
ATOM      7  C   UNL     1      -1.035   1.352   0.063  0.00  0.00    +0.000 A 
ATOM      8  C   UNL     1       0.381   1.378   0.084  0.00  0.00    +0.000 A 
ENDBRANCH   1   6
BRANCH   1   9
ATOM      9  C   UNL     1      -4.009   1.211  -0.126  0.00  0.00    +0.000 A 
ATOM     10  C   UNL     1      -3.865   2.170  -1.152  0.00  0.00    +0.000 A 
ATOM     11  C   UNL     1      -4.559   3.378  -1.111  0.00  0.00    +0.000 A 
ATOM     12  C   UNL     1      -5.417   3.665  -0.060  0.00  0.00    +0.000 A 
ATOM     13  C   UNL     1      -5.589   2.726   0.956  0.00  0.00    +0.000 A 
ATOM     14  C   UNL     1      -4.897   1.505   0.921  0.00  0.00    +0.000 A 
BRANCH  11  15
ATOM     15  O   UNL     1      -4.408   4.330  -2.077  0.00  0.00    +0.000 OA
ATOM     16  H   UNL     1      -3.787   4.000  -2.747  0.00  0.00    +0.000 HD
ENDBRANCH  11  15
ENDBRANCH   1   9
BRANCH   1  17
ATOM     17  C   UNL     1      -3.922  -1.277   0.018  0.00  0.00    +0.000 C 
BRANCH  17  18
ATOM     18  C   UNL     1      -3.116  -2.608   0.193  0.00  0.00    +0.000 C 
ATOM     19  N   UNL     1      -2.011  -2.676   0.917  0.00  0.00    +0.000 NA
ATOM     20  C   UNL     1      -1.310  -3.853   0.316  0.00  0.00    +0.000 C 
ATOM     21  C   UNL     1      -2.449  -4.810   0.101  0.00  0.00    +0.000 C 
ATOM     22  N   UNL     1      -3.439  -3.841  -0.387  0.00  0.00    +0.000 N 
ATOM     23  H   UNL     1      -4.406  -4.143  -0.394  0.00  0.00    +0.000 HD
ENDBRANCH  17  18
ENDBRANCH   1  17
TORSDOF 5
