REMARK  Name = Phentermine
REMARK  5 active torsions:
REMARK  status: ('A' for Active; 'I' for Inactive)
REMARK    1  A    between atoms: C_1  and  C_2
REMARK    2  A    between atoms: C_2  and  C_3
REMARK    3  A    between atoms: C_2  and  N_4
REMARK    4  A    between atoms: C_2  and  C_5
REMARK    5  A    between atoms: C_5  and  C_6
REMARK                            x       y       z     vdW  Elec       q    Type
REMARK                         _______ _______ _______ _____ _____    ______ ____
ROOT
ATOM      1  C   UNL     1       3.130  -0.221   1.409  0.00  0.00    +0.000 C 
ENDROOT
BRANCH   1   2
ATOM      2  C   UNL     1       4.654  -0.278   1.461  0.00  0.00    +0.000 A 
ATOM      3  C   UNL     1       5.478   0.118   0.395  0.00  0.00    +0.000 A 
ATOM      4  C   UNL     1       6.851  -0.069   0.404  0.00  0.00    +0.000 A 
ATOM      5  C   UNL     1       7.455  -0.599   1.532  0.00  0.00    +0.000 A 
ATOM      6  C   UNL     1       6.673  -0.953   2.631  0.00  0.00    +0.000 A 
ATOM      7  C   UNL     1       5.283  -0.800   2.600  0.00  0.00    +0.000 A 
ENDBRANCH   1   2
BRANCH   1   9
ATOM      8  C   UNL     1       0.948   0.022   0.114  0.00  0.00    +0.000 C 
ATOM      9  C   UNL     1       2.480   0.081   0.023  0.00  0.00    +0.000 C 
ATOM     10  C   UNL     1       2.909  -0.984  -1.016  0.00  0.00    +0.000 C 
BRANCH   9  11
ATOM     11  N   UNL     1       2.733   1.469  -0.399  0.00  0.00    +0.000 NA
ATOM     12  H   UNL     1       2.616   1.577  -1.402  0.00  0.00    +0.000 HD
ATOM     13  H   UNL     1       3.664   1.792  -0.150  0.00  0.00    +0.000 HD
ENDBRANCH   9  11
ENDBRANCH   1   9
TORSDOF 3
