REMARK  Name = Phenytoin
REMARK  2 active torsions:
REMARK  status: ('A' for Active; 'I' for Inactive)
REMARK    1  A    between atoms: C_6  and  C_8
REMARK    2  A    between atoms: C_6  and  C_14
REMARK                            x       y       z     vdW  Elec       q    Type
REMARK                         _______ _______ _______ _____ _____    ______ ____
ROOT
ATOM      1  O   UNL     1       2.245   0.561  -0.001  0.00  0.00    +0.000 OA
ATOM      2  C   UNL     1       1.093   0.149   0.011  0.00  0.00    +0.000 C 
ATOM      3  N   UNL     1      -0.017   0.911   0.021  0.00  0.00    +0.000 N 
ATOM      4  C   UNL     1      -1.136   0.133  -0.012  0.00  0.00    +0.000 C 
ATOM      5  O   UNL     1      -2.273   0.586  -0.014  0.00  0.00    +0.000 OA
ATOM      6  C   UNL     1      -0.703  -1.368  -0.012  0.00  0.00    +0.000 C 
ATOM      7  N   UNL     1       0.735  -1.170   0.026  0.00  0.00    +0.000 N 
ATOM      8  H   UNL     1      -0.021   1.916   0.045  0.00  0.00    +0.000 HD
ATOM      9  H   UNL     1       1.422  -1.908  -0.009  0.00  0.00    +0.000 HD
ENDROOT
BRANCH   6  10
ATOM     10  C   UNL     1      -1.075  -2.135  -1.281  0.00  0.00    +0.000 A 
ATOM     11  C   UNL     1      -2.020  -1.673  -2.208  0.00  0.00    +0.000 A 
ATOM     12  C   UNL     1      -2.525  -2.538  -3.179  0.00  0.00    +0.000 A 
ATOM     13  C   UNL     1      -2.058  -3.849  -3.268  0.00  0.00    +0.000 A 
ATOM     14  C   UNL     1      -1.107  -4.318  -2.369  0.00  0.00    +0.000 A 
ATOM     15  C   UNL     1      -0.597  -3.460  -1.405  0.00  0.00    +0.000 A 
ENDBRANCH   6  10
BRANCH   6  16
ATOM     16  C   UNL     1      -1.226  -2.048   1.267  0.00  0.00    +0.000 A 
ATOM     17  C   UNL     1      -2.116  -3.145   1.223  0.00  0.00    +0.000 A 
ATOM     18  C   UNL     1      -2.752  -3.620   2.361  0.00  0.00    +0.000 A 
ATOM     19  C   UNL     1      -2.464  -3.047   3.588  0.00  0.00    +0.000 A 
ATOM     20  C   UNL     1      -1.546  -2.000   3.672  0.00  0.00    +0.000 A 
ATOM     21  C   UNL     1      -0.923  -1.509   2.526  0.00  0.00    +0.000 A 
ENDBRANCH   6  16
TORSDOF 2
