REMARK  Name = Phenoxymethylpenicillin
REMARK  8 active torsions:
REMARK  status: ('A' for Active; 'I' for Inactive)
REMARK    1  A    between atoms: C_4  and  C_5
REMARK    2  A    between atoms: C_4  and  C_6
REMARK    3  A    between atoms: CA_7  and  C_23
REMARK    4  A    between atoms: CA_11  and  N_12
REMARK    5  A    between atoms: C_13  and  C_15
REMARK    6  A    between atoms: C_15  and  O_16
REMARK    7  A    between atoms: O_16  and  C_17
REMARK    8  A    between atoms: C_23  and  O_24
REMARK                            x       y       z     vdW  Elec       q    Type
REMARK                         _______ _______ _______ _____ _____    ______ ____
ROOT
ATOM      1  C   UNL     1       2.152   0.065  -0.021  0.00  0.00    +0.000 C 
ATOM      2  S   UNL     1       2.584  -1.195  -1.273  0.00  0.00    +0.000 S 
ATOM      3  C   UNL     1       2.928  -2.453   0.074  0.00  0.00    +0.000 C 
ATOM      4  C   UNL     1       3.868  -3.497  -0.535  0.00  0.00    +0.000 C 
ATOM      5  C   UNL     1       1.553  -3.043   0.441  0.00  0.00    +0.000 C 
ATOM      6  CA  UNL     1       3.612  -1.622   1.185  0.00  0.00    +0.000 C 
ATOM      7  N   UNL     1       2.991  -0.280   1.141  0.00  0.00    +0.000 N 
ATOM      8  C   UNL     1       3.760   0.853   1.022  0.00  0.00    +0.000 C 
ATOM      9  O   UNL     1       4.842   1.125   1.503  0.00  0.00    +0.000 OA
ATOM     10  CA  UNL     1       2.842   1.438  -0.092  0.00  0.00    +0.000 C 
ENDROOT
BRANCH  10  11
ATOM     11  N   UNL     1       3.496   1.831  -1.385  0.00  0.00    +0.000 N 
ATOM     12  C   UNL     1       4.087   3.080  -1.495  0.00  0.00    +0.000 C 
ATOM     13  O   UNL     1       4.046   3.880  -0.563  0.00  0.00    +0.000 OA
ATOM     14  H   UNL     1       3.510   1.182  -2.165  0.00  0.00    +0.000 HD
BRANCH  12  15
ATOM     15  C   UNL     1       4.729   3.399  -2.852  0.00  0.00    +0.000 C 
BRANCH  15  16
ATOM     16  O   UNL     1       5.378   4.671  -2.787  0.00  0.00    +0.000 OA
BRANCH  16  17
ATOM     17  C   UNL     1       5.899   5.145  -3.958  0.00  0.00    +0.000 A 
ATOM     18  C   UNL     1       7.109   5.839  -3.871  0.00  0.00    +0.000 A 
ATOM     19  C   UNL     1       7.661   6.442  -5.005  0.00  0.00    +0.000 A 
ATOM     20  C   UNL     1       7.036   6.299  -6.242  0.00  0.00    +0.000 A 
ATOM     21  C   UNL     1       5.823   5.620  -6.329  0.00  0.00    +0.000 A 
ATOM     22  C   UNL     1       5.245   5.062  -5.186  0.00  0.00    +0.000 A 
ENDBRANCH  16  17
ENDBRANCH  15  16
ENDBRANCH  12  15
ENDBRANCH  10  11
BRANCH   6  23
ATOM     23  C   UNL     1       3.653  -2.175   2.631  0.00  0.00    +0.000 C 
ATOM     24  OXT UNL     1       4.101  -1.530   3.572  0.00  0.00    +0.000 OA
BRANCH  23  25
ATOM     25  O   UNL     1       3.208  -3.425   2.873  0.00  0.00    +0.000 OA
ATOM     26  H   UNL     1       3.045  -4.050   2.151  0.00  0.00    +0.000 HD
ENDBRANCH  23  25
ENDBRANCH   6  23
TORSDOF 6
