REMARK  Name = Phenol
REMARK  1 active torsions:
REMARK  status: ('A' for Active; 'I' for Inactive)
REMARK    1  A    between atoms: O_1  and  C_2
REMARK                            x       y       z     vdW  Elec       q    Type
REMARK                         _______ _______ _______ _____ _____    ______ ____
ROOT
ATOM      1  C   UNL     1       0.898  -0.021   0.012  0.00  0.00    +0.000 A 
ATOM      2  C   UNL     1       0.240   1.205   0.010  0.00  0.00    +0.000 A 
ATOM      3  C   UNL     1      -1.156   1.234  -0.001  0.00  0.00    +0.000 A 
ATOM      4  C   UNL     1      -1.880   0.041  -0.009  0.00  0.00    +0.000 A 
ATOM      5  C   UNL     1      -1.211  -1.183  -0.001  0.00  0.00    +0.000 A 
ATOM      6  C   UNL     1       0.183  -1.214   0.010  0.00  0.00    +0.000 A 
ENDROOT
BRANCH   1   7
ATOM      7  O   UNL     1       2.260  -0.096   0.012  0.00  0.00    +0.000 OA
ATOM      8  H   UNL     1       2.617   0.807  -0.015  0.00  0.00    +0.000 HD
ENDBRANCH   1   7
TORSDOF 1
