REMARK  Name = Phenyltoloxamine
REMARK  8 active torsions:
REMARK  status: ('A' for Active; 'I' for Inactive)
REMARK    1  A    between atoms: C_1  and  N_2
REMARK    2  A    between atoms: N_2  and  C_3
REMARK    3  A    between atoms: N_2  and  C_4
REMARK    4  A    between atoms: C_4  and  C_5
REMARK    5  A    between atoms: C_5  and  O_6
REMARK    6  A    between atoms: O_6  and  C_7
REMARK    7  A    between atoms: C_12  and  C_13
REMARK    8  A    between atoms: C_13  and  C_14
REMARK                            x       y       z     vdW  Elec       q    Type
REMARK                         _______ _______ _______ _____ _____    ______ ____
ROOT
ATOM      1  C   UNL     1       6.338   2.008  -2.141  0.00  0.00    +0.000 A 
ATOM      2  C   UNL     1       6.943   3.202  -2.549  0.00  0.00    +0.000 A 
ATOM      3  C   UNL     1       8.289   3.269  -2.953  0.00  0.00    +0.000 A 
ATOM      4  C   UNL     1       9.113   2.159  -2.920  0.00  0.00    +0.000 A 
ATOM      5  C   UNL     1       8.569   0.960  -2.555  0.00  0.00    +0.000 A 
ATOM      6  C   UNL     1       7.201   0.844  -2.201  0.00  0.00    +0.000 A 
ENDROOT
BRANCH   1   7
ATOM      7  O   UNL     1       4.948   2.249  -1.879  0.00  0.00    +0.000 OA
BRANCH   7   8
ATOM      8  C   UNL     1       4.352   1.652  -0.678  0.00  0.00    +0.000 C 
BRANCH   8   9
ATOM      9  C   UNL     1       2.657   1.266  -0.426  0.00  0.00    +0.000 C 
BRANCH   9  11
ATOM     10  C   UNL     1       0.477   0.124   0.360  0.00  0.00    +0.000 C 
ATOM     11  N   UNL     1       1.921  -0.022   0.561  0.00  0.00    +0.000 NA
ATOM     12  C   UNL     1       1.966  -1.747   0.440  0.00  0.00    +0.000 C 
ENDBRANCH   9  11
ENDBRANCH   8   9
ENDBRANCH   7   8
ENDBRANCH   1   7
BRANCH   6  13
ATOM     13  C   UNL     1       7.026  -0.641  -2.020  0.00  0.00    +0.000 C 
BRANCH  13  14
ATOM     14  C   UNL     1       5.661  -1.045  -1.917  0.00  0.00    +0.000 A 
ATOM     15  C   UNL     1       5.330  -1.351  -0.618  0.00  0.00    +0.000 A 
ATOM     16  C   UNL     1       4.074  -1.108  -0.526  0.00  0.00    +0.000 A 
ATOM     17  C   UNL     1       3.088  -0.955  -1.670  0.00  0.00    +0.000 A 
ATOM     18  C   UNL     1       3.440  -0.698  -2.952  0.00  0.00    +0.000 A 
ATOM     19  C   UNL     1       4.767  -0.685  -3.036  0.00  0.00    +0.000 A 
ENDBRANCH  13  14
ENDBRANCH   6  13
TORSDOF 6
