REMARK  Name = Pholcodine
REMARK  6 active torsions:
REMARK  status: ('A' for Active; 'I' for Inactive)
REMARK    1  A    between atoms: C_5  and  O_6
REMARK    2  A    between atoms: O_6  and  C_7
REMARK    3  A    between atoms: C_7  and  C_8
REMARK    4  A    between atoms: C_8  and  N_9
REMARK    5  A    between atoms: N_22  and  C_23
REMARK    6  A    between atoms: C_31  and  O_32
REMARK                            x       y       z     vdW  Elec       q    Type
REMARK                         _______ _______ _______ _____ _____    ______ ____
ROOT
ATOM      1  C   UNL     1       2.032   0.069  -0.069  0.00  0.00    +0.000 C 
ATOM      2  O   UNL     1       2.492   0.891   1.043  0.00  0.00    +0.000 OA
ATOM      3  C   UNL     1       3.513   0.199   1.643  0.00  0.00    +0.000 A 
ATOM      4  C   UNL     1       4.419   0.687   2.570  0.00  0.00    +0.000 A 
ATOM      5  C   UNL     1       5.457  -0.176   2.965  0.00  0.00    +0.000 A 
ATOM      6  C   UNL     1       5.621  -1.450   2.377  0.00  0.00    +0.000 A 
ATOM      7  C   UNL     1       4.718  -1.896   1.414  0.00  0.00    +0.000 A 
ATOM      8  C   UNL     1       3.631  -1.079   1.145  0.00  0.00    +0.000 A 
ATOM      9  C   UNL     1       2.555  -1.364   0.146  0.00  0.00    +0.000 C 
ATOM     10  C   UNL     1       1.486  -2.279   0.765  0.00  0.00    +0.000 C 
ATOM     11  C   UNL     1       2.005  -3.697   1.022  0.00  0.00    +0.000 C 
ATOM     12  N   UNL     1       2.709  -4.214  -0.156  0.00  0.00    +0.000 NA
ATOM     13  C   UNL     1       3.089  -5.610   0.021  0.00  0.00    +0.000 C 
ATOM     14  C   UNL     1       3.856  -3.353  -0.557  0.00  0.00    +0.000 C 
ATOM     15  C   UNL     1       4.935  -3.127   0.566  0.00  0.00    +0.000 C 
ATOM     16  C   UNL     1       3.240  -2.017  -1.071  0.00  0.00    +0.000 C 
ATOM     17  C   UNL     1       4.218  -1.040  -1.710  0.00  0.00    +0.000 C 
ATOM     18  C   UNL     1       3.859   0.255  -1.833  0.00  0.00    +0.000 C 
ATOM     19  C   UNL     1       2.476   0.675  -1.424  0.00  0.00    +0.000 C 
ENDROOT
BRANCH  19  20
ATOM     20  O   UNL     1       2.386   2.093  -1.443  0.00  0.00    +0.000 OA
ATOM     21  H   UNL     1       2.891   2.406  -0.672  0.00  0.00    +0.000 HD
ENDBRANCH  19  20
BRANCH   4  22
ATOM     22  O   UNL     1       4.434   1.947   3.111  0.00  0.00    +0.000 OA
BRANCH  22  23
ATOM     23  C   UNL     1       3.377   2.809   2.665  0.00  0.00    +0.000 C 
BRANCH  23  24
ATOM     24  C   UNL     1       3.470   4.171   3.349  0.00  0.00    +0.000 C 
BRANCH  24  25
ATOM     25  N   UNL     1       2.264   4.967   3.048  0.00  0.00    +0.000 NA
ATOM     26  C   UNL     1       2.447   5.980   1.982  0.00  0.00    +0.000 C 
ATOM     27  C   UNL     1       3.242   7.229   2.414  0.00  0.00    +0.000 C 
ATOM     28  O   UNL     1       2.705   7.809   3.612  0.00  0.00    +0.000 OA
ATOM     29  C   UNL     1       2.668   6.833   4.660  0.00  0.00    +0.000 C 
ATOM     30  C   UNL     1       1.780   5.648   4.263  0.00  0.00    +0.000 C 
ENDBRANCH  24  25
ENDBRANCH  23  24
ENDBRANCH  22  23
ENDBRANCH   4  22
TORSDOF 5
