REMARK  Name = Phosphoric acid
REMARK  3 active torsions:
REMARK  status: ('A' for Active; 'I' for Inactive)
REMARK    1  A    between atoms: O_1  and  P_2
REMARK    2  A    between atoms: P_2  and  O_3
REMARK    3  A    between atoms: P_2  and  O_4
REMARK                            x       y       z     vdW  Elec       q    Type
REMARK                         _______ _______ _______ _____ _____    ______ ____
ROOT
ATOM      1  P   UNL     1       2.639  -0.040  -0.015  0.00  0.00    +0.000 P 
ATOM      2  O   UNL     1       4.188  -0.040  -0.015  0.00  0.00    +0.000 OA
ENDROOT
BRANCH   1   3
ATOM      3  O   UNL     1       0.909  -0.040  -0.015  0.00  0.00    +0.000 OA
ATOM      4  H   UNL     1       0.590  -0.816   0.480  0.00  0.00    +0.000 HD
ENDBRANCH   1   3
BRANCH   1   5
ATOM      5  O   UNL     1       2.398  -1.574   0.507  0.00  0.00    +0.000 OA
ATOM      6  H   UNL     1       2.300  -1.683   1.470  0.00  0.00    +0.000 HD
ENDBRANCH   1   5
BRANCH   1   7
ATOM      7  O   UNL     1       2.452  -0.425  -1.590  0.00  0.00    +0.000 OA
ATOM      8  H   UNL     1       1.658   0.012  -1.943  0.00  0.00    +0.000 HD
ENDBRANCH   1   7
TORSDOF 3
