REMARK  Name = Phthalylsulfathiazole
REMARK  6 active torsions:
REMARK  status: ('A' for Active; 'I' for Inactive)
REMARK    1  A    between atoms: O_1  and  C_2
REMARK    2  A    between atoms: C_2  and  C_4
REMARK    3  A    between atoms: C_9  and  C_10
REMARK    4  A    between atoms: N_12  and  C_13
REMARK    5  A    between atoms: C_16  and  S_19
REMARK    6  A    between atoms: S_19  and  N_22
REMARK                            x       y       z     vdW  Elec       q    Type
REMARK                         _______ _______ _______ _____ _____    ______ ____
ROOT
ATOM      1  C   UNL     1      -0.462   0.634   2.383  0.00  0.00    +0.000 A 
ATOM      2  C   UNL     1      -0.850  -0.653   2.764  0.00  0.00    +0.000 A 
ATOM      3  C   UNL     1      -2.121  -0.869   3.316  0.00  0.00    +0.000 A 
ATOM      4  C   UNL     1      -2.999   0.213   3.505  0.00  0.00    +0.000 A 
ATOM      5  C   UNL     1      -2.638   1.479   3.046  0.00  0.00    +0.000 A 
ATOM      6  C   UNL     1      -1.372   1.684   2.487  0.00  0.00    +0.000 A 
ENDROOT
BRANCH   1   9
ATOM      7  C   UNL     1       1.548   1.997   1.868  0.00  0.00    +0.000 C 
ATOM      8  O   UNL     1       1.233   2.962   2.562  0.00  0.00    +0.000 OA
ATOM      9  N   UNL     1       0.827   0.814   1.844  0.00  0.00    +0.000 N 
ATOM     10  H   UNL     1       1.256  -0.046   1.516  0.00  0.00    +0.000 HD
BRANCH   7  16
ATOM     11  C   UNL     1       3.180   1.235   0.002  0.00  0.00    +0.000 A 
ATOM     12  C   UNL     1       4.352   1.490  -0.739  0.00  0.00    +0.000 A 
ATOM     13  C   UNL     1       5.135   2.612  -0.480  0.00  0.00    +0.000 A 
ATOM     14  C   UNL     1       4.723   3.527   0.478  0.00  0.00    +0.000 A 
ATOM     15  C   UNL     1       3.556   3.286   1.212  0.00  0.00    +0.000 A 
ATOM     16  C   UNL     1       2.771   2.126   1.006  0.00  0.00    +0.000 A 
BRANCH  11  17
ATOM     17  C   UNL     1       2.545  -0.060  -0.287  0.00  0.00    +0.000 C 
ATOM     18  O   UNL     1       3.186  -1.107  -0.265  0.00  0.00    +0.000 OA
BRANCH  17  19
ATOM     19  O   UNL     1       1.226  -0.027  -0.533  0.00  0.00    +0.000 OA
ATOM     20  H   UNL     1       0.762   0.826  -0.395  0.00  0.00    +0.000 HD
ENDBRANCH  17  19
ENDBRANCH  11  17
ENDBRANCH   7  16
ENDBRANCH   1   9
BRANCH   4  21
ATOM     21  S   UNL     1      -4.501  -0.073   4.462  0.00  0.00    +0.000 S 
ATOM     22  O   UNL     1      -5.329  -0.903   3.615  0.00  0.00    +0.000 OA
ATOM     23  O   UNL     1      -4.031  -0.514   5.760  0.00  0.00    +0.000 OA
BRANCH  21  24
ATOM     24  N   UNL     1      -5.232   1.431   4.624  0.00  0.00    +0.000 N 
ATOM     25  C   UNL     1      -6.505   1.432   5.244  0.00  0.00    +0.000 A 
ATOM     26  N   UNL     1      -6.730   0.828   6.383  0.00  0.00    +0.000 NA
ATOM     27  C   UNL     1      -7.996   1.142   6.843  0.00  0.00    +0.000 A 
ATOM     28  C   UNL     1      -8.756   1.930   6.007  0.00  0.00    +0.000 A 
ATOM     29  S   UNL     1      -7.801   2.396   4.656  0.00  0.00    +0.000 S 
ATOM     30  H   UNL     1      -5.088   2.141   3.922  0.00  0.00    +0.000 HD
ENDBRANCH  21  24
ENDBRANCH   4  21
TORSDOF 6
