REMARK  Name = Phylloquinone
REMARK  20 active torsions:
REMARK  status: ('A' for Active; 'I' for Inactive)
REMARK    1  A    between atoms: C_1  and  C_2
REMARK    2  A    between atoms: C_2  and  C_3
REMARK    3  A    between atoms: C_2  and  C_4
REMARK    4  A    between atoms: C_4  and  C_5
REMARK    5  A    between atoms: C_5  and  C_6
REMARK    6  A    between atoms: C_6  and  C_7
REMARK    7  A    between atoms: C_7  and  C_8
REMARK    8  A    between atoms: C_7  and  C_9
REMARK    9  A    between atoms: C_9  and  C_10
REMARK   10  A    between atoms: C_10  and  C_11
REMARK   11  A    between atoms: C_11  and  C_12
REMARK   12  A    between atoms: C_12  and  C_13
REMARK   13  A    between atoms: C_12  and  C_14
REMARK   14  A    between atoms: C_14  and  C_15
REMARK   15  A    between atoms: C_15  and  C_16
REMARK   16  A    between atoms: C_16  and  C_17
REMARK   17  A    between atoms: C_17  and  C_18
REMARK   18  A    between atoms: C_19  and  C_20
REMARK   19  A    between atoms: C_20  and  C_21
REMARK   20  A    between atoms: C_22  and  C_23
REMARK                            x       y       z     vdW  Elec       q    Type
REMARK                         _______ _______ _______ _____ _____    ______ ____
ROOT
ATOM      1  C   UNL     1      14.685   4.291   7.459  0.00  0.00    +0.000 C 
ATOM      2  C   UNL     1      15.367   3.326   6.471  0.00  0.00    +0.000 C 
ATOM      3  C   UNL     1      15.396   5.156   8.228  0.00  0.00    +0.000 C 
ENDROOT
BRANCH   1   4
ATOM      4  C   UNL     1      13.175   4.590   7.334  0.00  0.00    +0.000 C 
BRANCH   4   5
ATOM      5  C   UNL     1      12.559   3.993   6.082  0.00  0.00    +0.000 C 
BRANCH   5   6
ATOM      6  C   UNL     1      11.058   4.088   6.003  0.00  0.00    +0.000 C 
BRANCH   6   7
ATOM      7  C   UNL     1      10.592   3.319   4.761  0.00  0.00    +0.000 C 
ATOM      8  C   UNL     1      11.136   3.932   3.455  0.00  0.00    +0.000 C 
BRANCH   7   9
ATOM      9  C   UNL     1       9.069   3.290   4.788  0.00  0.00    +0.000 C 
BRANCH   9  10
ATOM     10  C   UNL     1       8.550   2.481   3.627  0.00  0.00    +0.000 C 
BRANCH  10  11
ATOM     11  C   UNL     1       7.041   2.481   3.590  0.00  0.00    +0.000 C 
BRANCH  11  12
ATOM     12  C   UNL     1       6.554   1.708   2.366  0.00  0.00    +0.000 C 
ATOM     13  C   UNL     1       7.082   2.327   1.058  0.00  0.00    +0.000 C 
BRANCH  12  14
ATOM     14  C   UNL     1       5.025   1.686   2.402  0.00  0.00    +0.000 C 
BRANCH  14  15
ATOM     15  C   UNL     1       4.491   0.881   1.238  0.00  0.00    +0.000 C 
BRANCH  15  16
ATOM     16  C   UNL     1       2.978   0.878   1.202  0.00  0.00    +0.000 C 
BRANCH  16  18
ATOM     17  C   UNL     1       0.949   0.083  -0.001  0.00  0.00    +0.000 C 
ATOM     18  C   UNL     1       2.471   0.100  -0.018  0.00  0.00    +0.000 C 
ATOM     19  C   UNL     1       2.968   0.707  -1.335  0.00  0.00    +0.000 C 
ENDBRANCH  16  18
ENDBRANCH  15  16
ENDBRANCH  14  15
ENDBRANCH  12  14
ENDBRANCH  11  12
ENDBRANCH  10  11
ENDBRANCH   9  10
ENDBRANCH   7   9
ENDBRANCH   6   7
ENDBRANCH   5   6
ENDBRANCH   4   5
ENDBRANCH   1   4
BRANCH   3  20
ATOM     20  C   UNL     1      16.867   5.501   8.086  0.00  0.00    +0.000 C 
BRANCH  20  21
ATOM     21  C   UNL     1      17.364   5.700   6.644  0.00  0.00    +0.000 C 
ATOM     22  C   UNL     1      16.619   5.971   5.542  0.00  0.00    +0.000 C 
ATOM     23  C   UNL     1      15.152   6.288   5.497  0.00  0.00    +0.000 C 
ATOM     24  C   UNL     1      17.108   5.564   4.191  0.00  0.00    +0.000 C 
ATOM     25  O   UNL     1      16.337   5.366   3.266  0.00  0.00    +0.000 OA
ATOM     26  C   UNL     1      18.535   5.327   4.021  0.00  0.00    +0.000 A 
ATOM     27  C   UNL     1      19.382   5.338   5.119  0.00  0.00    +0.000 A 
ATOM     28  C   UNL     1      20.761   5.243   4.911  0.00  0.00    +0.000 A 
ATOM     29  C   UNL     1      21.263   5.126   3.610  0.00  0.00    +0.000 A 
ATOM     30  C   UNL     1      20.397   5.065   2.519  0.00  0.00    +0.000 A 
ATOM     31  C   UNL     1      19.026   5.154   2.723  0.00  0.00    +0.000 A 
ATOM     32  C   UNL     1      18.837   5.459   6.489  0.00  0.00    +0.000 C 
ATOM     33  O   UNL     1      19.576   5.397   7.455  0.00  0.00    +0.000 OA
ENDBRANCH  20  21
ENDBRANCH   3  20
TORSDOF 14
