REMARK  Name = Physostigmine
REMARK  6 active torsions:
REMARK  status: ('A' for Active; 'I' for Inactive)
REMARK    1  A    between atoms: N_3  and  C_4
REMARK    2  A    between atoms: C_7  and  C_8
REMARK    3  A    between atoms: C_13  and  O_14
REMARK    4  A    between atoms: O_14  and  C_15
REMARK    5  A    between atoms: N_17  and  C_18
REMARK    6  A    between atoms: N_20  and  C_21
REMARK                            x       y       z     vdW  Elec       q    Type
REMARK                         _______ _______ _______ _____ _____    ______ ____
ROOT
ATOM      1  C   UNL     1       2.246   0.142   0.011  0.00  0.00    +0.000 C 
ATOM      2  N   UNL     1       2.611   1.075   1.099  0.00  0.00    +0.000 NA
ATOM      3  C   UNL     1       1.622   1.216   2.159  0.00  0.00    +0.000 C 
ATOM      4  C   UNL     1       2.801   2.360   0.502  0.00  0.00    +0.000 C 
ATOM      5  C   UNL     1       3.126   2.054  -0.910  0.00  0.00    +0.000 C 
ATOM      6  C   UNL     1       3.044   0.562  -1.324  0.00  0.00    +0.000 C 
ATOM      7  C   UNL     1       3.351   1.246  -2.731  0.00  0.00    +0.000 C 
ATOM      8  C   UNL     1       2.987  -0.802  -2.024  0.00  0.00    +0.000 A 
ATOM      9  C   UNL     1       2.899  -1.794  -1.052  0.00  0.00    +0.000 A 
ATOM     10  C   UNL     1       3.108  -3.111  -1.419  0.00  0.00    +0.000 A 
ATOM     11  C   UNL     1       3.339  -3.449  -2.761  0.00  0.00    +0.000 A 
ATOM     12  C   UNL     1       3.324  -2.494  -3.767  0.00  0.00    +0.000 A 
ATOM     13  C   UNL     1       3.119  -1.185  -3.393  0.00  0.00    +0.000 A 
ATOM     14  N   UNL     1       2.593  -1.285   0.189  0.00  0.00    +0.000 N 
ATOM     15  C   UNL     1       2.789  -1.949   1.457  0.00  0.00    +0.000 C 
ENDROOT
BRANCH  12  16
ATOM     16  O   UNL     1       3.550  -2.691  -5.152  0.00  0.00    +0.000 OA
BRANCH  16  17
ATOM     17  C   UNL     1       3.757  -3.967  -5.634  0.00  0.00    +0.000 C 
ATOM     18  O   UNL     1       3.776  -4.991  -4.947  0.00  0.00    +0.000 OA
ATOM     19  N   UNL     1       3.943  -4.031  -6.988  0.00  0.00    +0.000 N 
ATOM     20  C   UNL     1       4.148  -5.331  -7.578  0.00  0.00    +0.000 C 
ATOM     21  H   UNL     1       3.923  -3.190  -7.553  0.00  0.00    +0.000 HD
ENDBRANCH  16  17
ENDBRANCH  12  16
TORSDOF 2
