REMARK  Name = Picosulfuric acid
REMARK  9 active torsions:
REMARK  status: ('A' for Active; 'I' for Inactive)
REMARK    1  A    between atoms: O_1  and  S_2
REMARK    2  A    between atoms: S_2  and  O_5
REMARK    3  A    between atoms: O_5  and  C_6
REMARK    4  A    between atoms: C_9  and  C_12
REMARK    5  A    between atoms: C_12  and  C_13
REMARK    6  A    between atoms: C_12  and  C_24
REMARK    7  A    between atoms: C_16  and  O_17
REMARK    8  A    between atoms: O_17  and  S_18
REMARK    9  A    between atoms: S_18  and  O_19
REMARK                            x       y       z     vdW  Elec       q    Type
REMARK                         _______ _______ _______ _____ _____    ______ ____
ROOT
ATOM      1  C   UNL     1       8.862   2.702   0.108  0.00  0.00    +0.000 C 
ENDROOT
BRANCH   1   5
ATOM      2  C   UNL     1       4.610   1.719   0.196  0.00  0.00    +0.000 A 
ATOM      3  C   UNL     1       5.135   2.659   1.088  0.00  0.00    +0.000 A 
ATOM      4  C   UNL     1       6.479   3.057   0.991  0.00  0.00    +0.000 A 
ATOM      5  C   UNL     1       7.339   2.442   0.066  0.00  0.00    +0.000 A 
ATOM      6  C   UNL     1       6.780   1.502  -0.810  0.00  0.00    +0.000 A 
ATOM      7  C   UNL     1       5.436   1.175  -0.773  0.00  0.00    +0.000 A 
BRANCH   2   8
ATOM      8  O   UNL     1       3.275   1.409   0.265  0.00  0.00    +0.000 OA
BRANCH   8   9
ATOM      9  S   UNL     1       2.770  -0.124  -0.011  0.00  0.00    +0.000 S 
ATOM     10  O   UNL     1       3.135  -0.956   1.115  0.00  0.00    +0.000 OA
ATOM     11  O   UNL     1       3.068  -0.539  -1.366  0.00  0.00    +0.000 OA
BRANCH   9  12
ATOM     12  O   UNL     1       1.163  -0.011   0.030  0.00  0.00    +0.000 OA
ATOM     13  H   UNL     1       0.812  -0.903  -0.172  0.00  0.00    +0.000 HD
ENDBRANCH   9  12
ENDBRANCH   8   9
ENDBRANCH   2   8
ENDBRANCH   1   5
BRANCH   1  14
ATOM     14  C   UNL     1       9.401   2.351   1.507  0.00  0.00    +0.000 A 
ATOM     15  C   UNL     1      10.180   3.232   2.264  0.00  0.00    +0.000 A 
ATOM     16  C   UNL     1      10.854   2.761   3.403  0.00  0.00    +0.000 A 
ATOM     17  C   UNL     1      10.700   1.433   3.828  0.00  0.00    +0.000 A 
ATOM     18  C   UNL     1       9.923   0.570   3.067  0.00  0.00    +0.000 A 
ATOM     19  C   UNL     1       9.242   1.032   1.958  0.00  0.00    +0.000 A 
BRANCH  17  20
ATOM     20  O   UNL     1      11.322   1.059   4.995  0.00  0.00    +0.000 OA
BRANCH  20  21
ATOM     21  S   UNL     1      11.159  -0.433   5.653  0.00  0.00    +0.000 S 
ATOM     22  O   UNL     1      11.532  -1.430   4.677  0.00  0.00    +0.000 OA
ATOM     23  O   UNL     1      11.780  -0.421   6.965  0.00  0.00    +0.000 OA
BRANCH  21  24
ATOM     24  O   UNL     1       9.567  -0.603   5.912  0.00  0.00    +0.000 OA
ATOM     25  H   UNL     1       9.070  -0.641   5.074  0.00  0.00    +0.000 HD
ENDBRANCH  21  24
ENDBRANCH  20  21
ENDBRANCH  17  20
ENDBRANCH   1  14
BRANCH   1  26
ATOM     26  C   UNL     1       9.657   1.919  -0.978  0.00  0.00    +0.000 A 
ATOM     27  C   UNL     1       9.378   2.099  -2.332  0.00  0.00    +0.000 A 
ATOM     28  C   UNL     1       9.855   1.158  -3.245  0.00  0.00    +0.000 A 
ATOM     29  C   UNL     1      10.657   0.109  -2.806  0.00  0.00    +0.000 A 
ATOM     30  C   UNL     1      10.957   0.040  -1.464  0.00  0.00    +0.000 A 
ATOM     31  N   UNL     1      10.477   0.913  -0.565  0.00  0.00    +0.000 NA
ENDBRANCH   1  26
TORSDOF 9
