REMARK  Name = Pidolic acid
REMARK  2 active torsions:
REMARK  status: ('A' for Active; 'I' for Inactive)
REMARK    1  A    between atoms: O_1  and  C_2
REMARK    2  A    between atoms: C_2  and  CA_4
REMARK                            x       y       z     vdW  Elec       q    Type
REMARK                         _______ _______ _______ _____ _____    ______ ____
ROOT
ATOM      1  CA  UNL     1       3.083  -0.967  -0.990  0.00  0.00    +0.000 C 
ATOM      2  C   UNL     1       2.429  -1.222  -2.341  0.00  0.00    +0.000 C 
ATOM      3  C   UNL     1       2.834  -2.655  -2.680  0.00  0.00    +0.000 C 
ATOM      4  C   UNL     1       2.972  -3.287  -1.321  0.00  0.00    +0.000 C 
ATOM      5  O   UNL     1       2.959  -4.480  -1.071  0.00  0.00    +0.000 OA
ATOM      6  N   UNL     1       3.153  -2.281  -0.401  0.00  0.00    +0.000 N 
ATOM      7  H   UNL     1       3.421  -2.484   0.558  0.00  0.00    +0.000 HD
ENDROOT
BRANCH   1   8
ATOM      8  C   UNL     1       2.377   0.027  -0.062  0.00  0.00    +0.000 C 
ATOM      9  OXT UNL     1       2.993   0.753   0.710  0.00  0.00    +0.000 OA
BRANCH   8  10
ATOM     10  O   UNL     1       1.027  -0.008  -0.051  0.00  0.00    +0.000 OA
ATOM     11  H   UNL     1       0.597  -0.696  -0.589  0.00  0.00    +0.000 HD
ENDBRANCH   8  10
ENDBRANCH   1   8
TORSDOF 2
