REMARK  Name = Piflufolastat F 18
REMARK  16 active torsions:
REMARK  status: ('A' for Active; 'I' for Inactive)
REMARK    1  A    between atoms: O_1  and  C_2
REMARK    2  A    between atoms: C_2  and  C_4
REMARK    3  A    between atoms: C_4  and  C_5
REMARK    4  A    between atoms: C_5  and  C_6
REMARK    5  A    between atoms: C_6  and  N_7
REMARK    6  A    between atoms: C_6  and  C_29
REMARK    7  A    between atoms: N_10  and  C_11
REMARK    8  A    between atoms: C_11  and  C_12
REMARK    9  A    between atoms: C_11  and  C_26
REMARK   10  A    between atoms: C_12  and  C_13
REMARK   11  A    between atoms: C_13  and  C_14
REMARK   12  A    between atoms: C_14  and  C_15
REMARK   13  A    between atoms: C_15  and  N_16
REMARK   14  A    between atoms: C_17  and  C_19
REMARK   15  A    between atoms: C_26  and  O_27
REMARK   16  A    between atoms: C_29  and  O_30
REMARK                            x       y       z     vdW  Elec       q    Type
REMARK                         _______ _______ _______ _____ _____    ______ ____
ROOT
ATOM      1  C   UNK A   1       4.678   2.714  -0.237  0.00  0.00    +0.000 C 
ENDROOT
BRANCH   1   5
ATOM      2  N   UNK A   1       4.787  -0.930   0.253  0.00  0.00    +0.000 N 
ATOM      3  C   UNK A   0       5.035   0.374   0.601  0.00  0.00    +0.000 C 
ATOM      4  O   UNK A   0       6.040   0.677   1.232  0.00  0.00    +0.000 OA
ATOM      5  N   UNK A   1       4.263   1.285  -0.072  0.00  0.00    +0.000 N 
ATOM      6  H   UNK A   1       3.805  -1.138   0.130  0.00  0.00    +0.000 HD
ATOM      7  H   UNK A   1       3.336   0.975  -0.296  0.00  0.00    +0.000 HD
BRANCH   2   8
ATOM      8  C   UNK A   1       5.589  -2.095   0.770  0.00  0.00    +0.000 C 
BRANCH   8   9
ATOM      9  C   UNK A   1       7.148  -1.993   0.831  0.00  0.00    +0.000 C 
ATOM     10  O   UNK A   1       7.856  -2.835   1.371  0.00  0.00    +0.000 OA
BRANCH   9  11
ATOM     11  O   UNK A   1       7.702  -0.973   0.164  0.00  0.00    +0.000 OA
ATOM     12  H   UNK A   1       7.068  -0.234   0.162  0.00  0.00    +0.000 HD
ENDBRANCH   9  11
ENDBRANCH   8   9
BRANCH   8  13
ATOM     13  C   UNK A   1       5.224  -3.345  -0.096  0.00  0.00    +0.000 C 
BRANCH  13  14
ATOM     14  C   UNK A   1       6.141  -4.570   0.091  0.00  0.00    +0.000 C 
BRANCH  14  15
ATOM     15  C   UNK A   1       5.838  -5.704  -0.849  0.00  0.00    +0.000 C 
ATOM     16  O   UNK A   1       4.939  -5.695  -1.680  0.00  0.00    +0.000 OA
BRANCH  15  17
ATOM     17  O   UNK A   1       6.693  -6.744  -0.714  0.00  0.00    +0.000 OA
ATOM     18  H   UNK A   1       7.400  -6.615  -0.049  0.00  0.00    +0.000 HD
ENDBRANCH  15  17
ENDBRANCH  14  15
ENDBRANCH  13  14
ENDBRANCH   8  13
ENDBRANCH   2   8
ENDBRANCH   1   5
BRANCH   1  19
ATOM     19  C   UNK A   1       3.562   3.734  -0.575  0.00  0.00    +0.000 C 
ATOM     20  O   UNK A   1       3.774   4.932  -0.719  0.00  0.00    +0.000 OA
BRANCH  19  21
ATOM     21  O   UNK A   1       2.316   3.244  -0.735  0.00  0.00    +0.000 OA
ATOM     22  H   UNK A   1       2.190   2.293  -0.619  0.00  0.00    +0.000 HD
ENDBRANCH  19  21
ENDBRANCH   1  19
BRANCH   1  23
ATOM     23  C   UNK A   1       5.780   2.896  -1.333  0.00  0.00    +0.000 C 
BRANCH  23  24
ATOM     24  C   UNK A   1       7.031   2.065  -1.074  0.00  0.00    +0.000 C 
BRANCH  24  25
ATOM     25  C   UNK A   1       8.135   2.151  -2.115  0.00  0.00    +0.000 C 
BRANCH  25  26
ATOM     26  C   UNK A   1       9.300   1.227  -1.729  0.00  0.00    +0.000 C 
BRANCH  26  27
ATOM     27  N   UNK A   1      10.376   1.278  -2.701  0.00  0.00    +0.000 N 
ATOM     28  C   UNK A   1      11.493   0.472  -2.572  0.00  0.00    +0.000 C 
ATOM     29  O   UNK A   1      11.689  -0.297  -1.640  0.00  0.00    +0.000 OA
ATOM     30  H   UNK A   1      10.212   1.776  -3.565  0.00  0.00    +0.000 HD
BRANCH  28  31
ATOM     31  C   UNK A   1      12.473   0.537  -3.678  0.00  0.00    +0.000 A 
ATOM     32  C   UNK A   1      12.901   1.745  -4.229  0.00  0.00    +0.000 A 
ATOM     33  C   UNK A   1      13.810   1.722  -5.287  0.00  0.00    +0.000 A 
ATOM     34  C   UNK A   1      14.189   0.495  -5.807  0.00  0.00    +0.000 A 
ATOM     35  F   UNK A   1      14.931   0.476  -6.924  0.00  0.00    +0.000 F 
ATOM     36  N   UNK A   1      13.835  -0.688  -5.267  0.00  0.00    +0.000 NA
ATOM     37  C   UNK A   1      13.023  -0.637  -4.178  0.00  0.00    +0.000 A 
ENDBRANCH  28  31
ENDBRANCH  26  27
ENDBRANCH  25  26
ENDBRANCH  24  25
ENDBRANCH  23  24
ENDBRANCH   1  23
TORSDOF 16
