REMARK  Name = Pilocarpine
REMARK  5 active torsions:
REMARK  status: ('A' for Active; 'I' for Inactive)
REMARK    1  A    between atoms: C_1  and  C_2
REMARK    2  A    between atoms: C_2  and  C_3
REMARK    3  A    between atoms: C_4  and  C_5
REMARK    4  A    between atoms: C_5  and  C_6
REMARK    5  A    between atoms: N_10  and  C_11
REMARK                            x       y       z     vdW  Elec       q    Type
REMARK                         _______ _______ _______ _____ _____    ______ ____
ROOT
ATOM      1  C   UNL     1       3.129   0.155  -1.808  0.00  0.00    +0.000 C 
ATOM      2  C   UNL     1       3.869   1.493  -1.645  0.00  0.00    +0.000 C 
ATOM      3  C   UNL     1       5.060   1.167  -2.549  0.00  0.00    +0.000 C 
ATOM      4  O   UNL     1       5.368  -0.216  -2.360  0.00  0.00    +0.000 OA
ATOM      5  C   UNL     1       4.230  -0.843  -2.012  0.00  0.00    +0.000 C 
ATOM      6  O   UNL     1       4.148  -2.071  -1.807  0.00  0.00    +0.000 OA
ENDROOT
BRANCH   1   8
ATOM      7  C   UNL     1       0.962   0.125  -0.503  0.00  0.00    +0.000 C 
ATOM      8  C   UNL     1       2.463  -0.259  -0.566  0.00  0.00    +0.000 C 
ENDBRANCH   1   8
BRANCH   2   9
ATOM      9  C   UNL     1       4.321   1.949  -0.179  0.00  0.00    +0.000 C 
BRANCH   9  10
ATOM     10  C   UNL     1       3.194   2.270   0.869  0.00  0.00    +0.000 A 
ATOM     11  C   UNL     1       2.859   3.558   1.276  0.00  0.00    +0.000 A 
ATOM     12  N   UNL     1       1.698   3.582   1.990  0.00  0.00    +0.000 NA
ATOM     13  C   UNL     1       1.342   2.331   2.116  0.00  0.00    +0.000 A 
ATOM     14  N   UNL     1       2.314   1.459   1.669  0.00  0.00    +0.000 N 
ATOM     15  C   UNL     1       2.239   0.041   2.082  0.00  0.00    +0.000 C 
ENDBRANCH   9  10
ENDBRANCH   2   9
TORSDOF 3
