REMARK  Name = Pimavanserin
REMARK  11 active torsions:
REMARK  status: ('A' for Active; 'I' for Inactive)
REMARK    1  A    between atoms: C_1  and  C_2
REMARK    2  A    between atoms: C_2  and  C_3
REMARK    3  A    between atoms: C_2  and  C_4
REMARK    4  A    between atoms: C_4  and  O_5
REMARK    5  A    between atoms: O_5  and  C_6
REMARK    6  A    between atoms: C_9  and  C_10
REMARK    7  A    between atoms: C_10  and  N_11
REMARK    8  A    between atoms: N_14  and  C_15
REMARK    9  A    between atoms: N_14  and  C_23
REMARK   10  A    between atoms: C_15  and  C_16
REMARK   11  A    between atoms: N_26  and  C_27
REMARK                            x       y       z     vdW  Elec       q    Type
REMARK                         _______ _______ _______ _____ _____    ______ ____
ROOT
ATOM      1  N   UNL     1       7.413  -4.509   5.431  0.00  0.00    +0.000 N 
ATOM      2  C   UNL     1       7.794  -5.135   6.600  0.00  0.00    +0.000 C 
ATOM      3  O   UNL     1       8.786  -4.642   7.187  0.00  0.00    +0.000 OA
ATOM      4  N   UNL     1       7.019  -6.193   7.163  0.00  0.00    +0.000 N 
ATOM      5  H   UNL     1       6.790  -4.998   4.813  0.00  0.00    +0.000 HD
ENDROOT
BRANCH   4   6
ATOM      6  C   UNL     1       7.564  -6.999   8.337  0.00  0.00    +0.000 C 
ATOM      7  C   UNL     1       6.518  -7.836   9.161  0.00  0.00    +0.000 C 
ATOM      8  C   UNL     1       5.562  -6.937   9.964  0.00  0.00    +0.000 C 
ATOM      9  N   UNL     1       6.289  -6.002  10.828  0.00  0.00    +0.000 NA
ATOM     10  C   UNL     1       5.336  -5.094  11.468  0.00  0.00    +0.000 C 
ATOM     11  C   UNL     1       7.272  -5.223  10.054  0.00  0.00    +0.000 C 
ATOM     12  C   UNL     1       8.280  -6.158   9.395  0.00  0.00    +0.000 C 
ENDBRANCH   4   6
BRANCH   1  13
ATOM     13  C   UNL     1       7.868  -3.115   5.062  0.00  0.00    +0.000 C 
BRANCH  13  17
ATOM     14  C   UNL     1       5.332  -0.795   2.220  0.00  0.00    +0.000 A 
ATOM     15  C   UNL     1       6.535  -0.277   2.644  0.00  0.00    +0.000 A 
ATOM     16  C   UNL     1       7.396  -1.007   3.551  0.00  0.00    +0.000 A 
ATOM     17  C   UNL     1       7.143  -2.334   3.938  0.00  0.00    +0.000 A 
ATOM     18  C   UNL     1       6.082  -2.867   3.261  0.00  0.00    +0.000 A 
ATOM     19  C   UNL     1       5.096  -2.033   2.682  0.00  0.00    +0.000 A 
BRANCH  14  20
ATOM     20  O   UNL     1       4.509  -0.227   1.298  0.00  0.00    +0.000 OA
BRANCH  20  21
ATOM     21  C   UNL     1       3.092  -0.578   1.234  0.00  0.00    +0.000 C 
BRANCH  21  23
ATOM     22  C   UNL     1       0.967  -0.053  -0.074  0.00  0.00    +0.000 C 
ATOM     23  C   UNL     1       2.497   0.002  -0.063  0.00  0.00    +0.000 C 
ATOM     24  C   UNL     1       2.977   1.439  -0.221  0.00  0.00    +0.000 C 
ENDBRANCH  21  23
ENDBRANCH  20  21
ENDBRANCH  14  20
ENDBRANCH  13  17
ENDBRANCH   1  13
BRANCH   4  25
ATOM     25  C   UNL     1       5.755  -6.748   6.659  0.00  0.00    +0.000 C 
BRANCH  25  26
ATOM     26  C   UNL     1       4.860  -5.885   5.867  0.00  0.00    +0.000 A 
ATOM     27  C   UNL     1       4.754  -4.519   6.149  0.00  0.00    +0.000 A 
ATOM     28  C   UNL     1       4.209  -3.730   5.164  0.00  0.00    +0.000 A 
ATOM     29  C   UNL     1       3.674  -4.389   4.025  0.00  0.00    +0.000 A 
ATOM     30  F   UNL     1       3.611  -3.904   2.789  0.00  0.00    +0.000 F 
ATOM     31  C   UNL     1       3.559  -5.736   3.889  0.00  0.00    +0.000 A 
ATOM     32  C   UNL     1       4.192  -6.502   4.803  0.00  0.00    +0.000 A 
ENDBRANCH  25  26
ENDBRANCH   4  25
TORSDOF 8
