REMARK  Name = Pimethixene
REMARK  1 active torsions:
REMARK  status: ('A' for Active; 'I' for Inactive)
REMARK    1  A    between atoms: C_1  and  N_2
REMARK                            x       y       z     vdW  Elec       q    Type
REMARK                         _______ _______ _______ _____ _____    ______ ____
ROOT
ATOM      1  C   UNL     1       1.011   0.129   0.223  0.00  0.00    +0.000 C 
ATOM      2  N   UNL     1       2.478   0.068   0.155  0.00  0.00    +0.000 NA
ATOM      3  C   UNL     1       2.923  -1.262  -0.307  0.00  0.00    +0.000 C 
ATOM      4  C   UNL     1       2.366  -1.572  -1.712  0.00  0.00    +0.000 C 
ATOM      5  C   UNL     1       3.027  -0.632  -2.726  0.00  0.00    +0.000 C 
ATOM      6  C   UNL     1       2.494   0.742  -2.237  0.00  0.00    +0.000 C 
ATOM      7  C   UNL     1       2.967   1.052  -0.812  0.00  0.00    +0.000 C 
ATOM      8  C   UNL     1       3.868  -0.991  -3.760  0.00  0.00    +0.000 C 
ATOM      9  C   UNL     1       4.327   0.055  -4.798  0.00  0.00    +0.000 A 
ATOM     10  C   UNL     1       3.946   1.408  -4.770  0.00  0.00    +0.000 A 
ATOM     11  C   UNL     1       4.355   2.411  -5.645  0.00  0.00    +0.000 A 
ATOM     12  C   UNL     1       5.129   2.077  -6.702  0.00  0.00    +0.000 A 
ATOM     13  C   UNL     1       5.498   0.743  -6.847  0.00  0.00    +0.000 A 
ATOM     14  C   UNL     1       5.115  -0.254  -5.906  0.00  0.00    +0.000 A 
ATOM     15  S   UNL     1       5.681  -1.863  -6.345  0.00  0.00    +0.000 S 
ATOM     16  C   UNL     1       5.070  -2.895  -5.051  0.00  0.00    +0.000 A 
ATOM     17  C   UNL     1       5.458  -4.251  -5.216  0.00  0.00    +0.000 A 
ATOM     18  C   UNL     1       5.089  -5.238  -4.316  0.00  0.00    +0.000 A 
ATOM     19  C   UNL     1       4.404  -4.859  -3.194  0.00  0.00    +0.000 A 
ATOM     20  C   UNL     1       4.155  -3.500  -2.977  0.00  0.00    +0.000 A 
ATOM     21  C   UNL     1       4.342  -2.470  -3.929  0.00  0.00    +0.000 A 
ENDROOT
TORSDOF 0
