REMARK  Name = Pimozide
REMARK  7 active torsions:
REMARK  status: ('A' for Active; 'I' for Inactive)
REMARK    1  A    between atoms: C_5  and  C_8
REMARK    2  A    between atoms: C_8  and  C_9
REMARK    3  A    between atoms: C_8  and  C_28
REMARK    4  A    between atoms: C_9  and  C_10
REMARK    5  A    between atoms: C_10  and  C_11
REMARK    6  A    between atoms: C_11  and  N_12
REMARK    7  A    between atoms: C_15  and  N_18
REMARK                            x       y       z     vdW  Elec       q    Type
REMARK                         _______ _______ _______ _____ _____    ______ ____
ROOT
ATOM      1  C   UNL     1      -4.016  -2.899   2.555  0.00  0.00    +0.000 C 
ENDROOT
BRANCH   1   2
ATOM      2  N   UNL     1      -3.428  -4.261   2.516  0.00  0.00    +0.000 NA
ATOM      3  C   UNL     1      -4.396  -5.281   2.974  0.00  0.00    +0.000 C 
ATOM      4  C   UNL     1      -3.842  -6.686   2.854  0.00  0.00    +0.000 C 
ATOM      5  C   UNL     1      -3.244  -6.947   1.467  0.00  0.00    +0.000 C 
ATOM      6  C   UNL     1      -2.131  -5.956   1.177  0.00  0.00    +0.000 C 
ATOM      7  C   UNL     1      -2.670  -4.564   1.273  0.00  0.00    +0.000 C 
BRANCH   5   8
ATOM      8  N   UNL     1      -4.237  -7.061   0.386  0.00  0.00    +0.000 N 
ATOM      9  C   UNL     1      -4.373  -8.243  -0.377  0.00  0.00    +0.000 A 
ATOM     10  O   UNL     1      -3.732  -9.287  -0.266  0.00  0.00    +0.000 OA
ATOM     11  N   UNL     1      -5.394  -8.014  -1.309  0.00  0.00    +0.000 N 
ATOM     12  C   UNL     1      -5.887  -6.725  -1.150  0.00  0.00    +0.000 A 
ATOM     13  C   UNL     1      -6.894  -6.063  -1.844  0.00  0.00    +0.000 A 
ATOM     14  C   UNL     1      -7.213  -4.739  -1.494  0.00  0.00    +0.000 A 
ATOM     15  C   UNL     1      -6.528  -4.112  -0.478  0.00  0.00    +0.000 A 
ATOM     16  C   UNL     1      -5.537  -4.824   0.175  0.00  0.00    +0.000 A 
ATOM     17  C   UNL     1      -5.190  -6.127  -0.124  0.00  0.00    +0.000 A 
ATOM     18  H   UNL     1      -5.698  -8.704  -1.974  0.00  0.00    +0.000 HD
ENDBRANCH   5   8
ENDBRANCH   1   2
BRANCH   1  19
ATOM     19  C   UNL     1      -3.544  -2.080   1.367  0.00  0.00    +0.000 C 
BRANCH  19  20
ATOM     20  C   UNL     1      -3.996  -0.663   1.284  0.00  0.00    +0.000 C 
BRANCH  20  21
ATOM     21  C   UNL     1      -3.445   0.066   0.018  0.00  0.00    +0.000 C 
BRANCH  21  26
ATOM     22  F   UNL     1       2.253  -0.016   0.022  0.00  0.00    +0.000 F 
ATOM     23  C   UNL     1       0.916   0.005  -0.008  0.00  0.00    +0.000 A 
ATOM     24  C   UNL     1       0.214  -1.183  -0.091  0.00  0.00    +0.000 A 
ATOM     25  C   UNL     1      -1.175  -1.142  -0.206  0.00  0.00    +0.000 A 
ATOM     26  C   UNL     1      -1.897   0.059  -0.046  0.00  0.00    +0.000 A 
ATOM     27  C   UNL     1      -1.141   1.237   0.062  0.00  0.00    +0.000 A 
ATOM     28  C   UNL     1       0.251   1.217   0.024  0.00  0.00    +0.000 A 
ENDBRANCH  21  26
BRANCH  21  29
ATOM     29  C   UNL     1      -4.058   1.472  -0.037  0.00  0.00    +0.000 A 
ATOM     30  C   UNL     1      -3.760   2.320  -1.118  0.00  0.00    +0.000 A 
ATOM     31  C   UNL     1      -4.148   3.657  -1.085  0.00  0.00    +0.000 A 
ATOM     32  C   UNL     1      -4.910   4.127  -0.021  0.00  0.00    +0.000 A 
ATOM     33  F   UNL     1      -5.298   5.406   0.002  0.00  0.00    +0.000 F 
ATOM     34  C   UNL     1      -5.272   3.296   1.024  0.00  0.00    +0.000 A 
ATOM     35  C   UNL     1      -4.836   1.982   1.021  0.00  0.00    +0.000 A 
ENDBRANCH  21  29
ENDBRANCH  20  21
ENDBRANCH  19  20
ENDBRANCH   1  19
TORSDOF 7
