REMARK  Name = Pinaverium
REMARK  14 active torsions:
REMARK  status: ('A' for Active; 'I' for Inactive)
REMARK    1  A    between atoms: C_1  and  O_2
REMARK    2  A    between atoms: O_2  and  C_3
REMARK    3  A    between atoms: C_4  and  O_5
REMARK    4  A    between atoms: O_5  and  C_6
REMARK    5  A    between atoms: C_8  and  C_9
REMARK    6  A    between atoms: C_9  and  N_10
REMARK    7  A    between atoms: N_10  and  C_11
REMARK    8  A    between atoms: C_11  and  C_12
REMARK    9  A    between atoms: C_12  and  O_13
REMARK   10  A    between atoms: O_13  and  C_14
REMARK   11  A    between atoms: C_14  and  C_15
REMARK   12  A    between atoms: C_15  and  C_16
REMARK   13  A    between atoms: C_22  and  C_23
REMARK   14  A    between atoms: C_22  and  C_24
REMARK                            x       y       z     vdW  Elec       q    Type
REMARK                         _______ _______ _______ _____ _____    ______ ____
ROOT
ATOM      1  N   UNL     1       6.064   3.028  -4.457  0.00  0.00    +0.000 N 
ATOM      2  C   UNL     1       7.277   2.513  -3.618  0.00  0.00    +0.000 C 
ATOM      3  C   UNL     1       8.177   1.499  -4.357  0.00  0.00    +0.000 C 
ATOM      4  O   UNL     1       7.505   0.533  -5.156  0.00  0.00    +0.000 OA
ATOM      5  C   UNL     1       6.513   1.014  -6.052  0.00  0.00    +0.000 C 
ATOM      6  C   UNL     1       5.473   1.981  -5.451  0.00  0.00    +0.000 C 
ENDROOT
BRANCH   1   7
ATOM      7  C   UNL     1       4.948   3.457  -3.503  0.00  0.00    +0.000 C 
BRANCH   7  11
ATOM      8  C   UNL     1       2.939   0.979  -0.571  0.00  0.00    +0.000 A 
ATOM      9  C   UNL     1       2.658   2.329  -0.723  0.00  0.00    +0.000 A 
ATOM     10  C   UNL     1       3.327   3.067  -1.691  0.00  0.00    +0.000 A 
ATOM     11  C   UNL     1       4.320   2.469  -2.536  0.00  0.00    +0.000 A 
ATOM     12  C   UNL     1       4.569   1.085  -2.320  0.00  0.00    +0.000 A 
ATOM     13 BR   UNL     1       5.656  -0.238  -3.143  0.00  0.00    +0.000 Br
ATOM     14  C   UNL     1       3.920   0.388  -1.339  0.00  0.00    +0.000 A 
BRANCH   8  16
ATOM     15  C   UNL     1       0.981  -0.020   0.053  0.00  0.00    +0.000 C 
ATOM     16  O   UNL     1       2.372   0.123   0.311  0.00  0.00    +0.000 OA
ENDBRANCH   8  16
BRANCH   9  17
ATOM     17  O   UNL     1       1.740   2.795   0.172  0.00  0.00    +0.000 OA
ATOM     18  C   UNL     1       1.303   4.130   0.082  0.00  0.00    +0.000 C 
ENDBRANCH   9  17
ENDBRANCH   7  11
ENDBRANCH   1   7
BRANCH   1  19
ATOM     19  C   UNL     1       6.471   4.330  -5.225  0.00  0.00    +0.000 C 
BRANCH  19  20
ATOM     20  C   UNL     1       7.575   4.034  -6.192  0.00  0.00    +0.000 C 
BRANCH  20  21
ATOM     21  O   UNL     1       8.051   5.121  -6.980  0.00  0.00    +0.000 OA
BRANCH  21  22
ATOM     22  C   UNL     1       9.026   4.483  -7.804  0.00  0.00    +0.000 C 
BRANCH  22  23
ATOM     23  C   UNL     1       9.807   5.275  -8.826  0.00  0.00    +0.000 C 
BRANCH  23  24
ATOM     24  C   UNL     1      10.936   4.413  -9.534  0.00  0.00    +0.000 C 
ATOM     25  C   UNL     1      11.465   3.295  -8.642  0.00  0.00    +0.000 C 
ATOM     26  C   UNL     1      10.431   2.117  -8.600  0.00  0.00    +0.000 C 
ATOM     27  C   UNL     1       9.808   1.860 -10.009  0.00  0.00    +0.000 C 
ATOM     28  C   UNL     1       9.179   3.059 -10.804  0.00  0.00    +0.000 C 
ATOM     29  C   UNL     1      10.614   3.615 -10.854  0.00  0.00    +0.000 C 
ATOM     30  C   UNL     1      10.978   1.837 -11.051  0.00  0.00    +0.000 C 
ATOM     31  C   UNL     1      11.849   0.683 -10.424  0.00  0.00    +0.000 C 
ATOM     32  C   UNL     1      10.632   1.252 -12.443  0.00  0.00    +0.000 C 
ENDBRANCH  23  24
ENDBRANCH  22  23
ENDBRANCH  21  22
ENDBRANCH  20  21
ENDBRANCH  19  20
ENDBRANCH   1  19
TORSDOF 10
