REMARK  Name = Pinacidil
REMARK  8 active torsions:
REMARK  status: ('A' for Active; 'I' for Inactive)
REMARK    1  A    between atoms: C_1  and  C_2
REMARK    2  A    between atoms: C_2  and  N_3
REMARK    3  A    between atoms: C_2  and  C_15
REMARK    4  A    between atoms: N_5  and  C_6
REMARK    5  A    between atoms: N_8  and  C_9
REMARK    6  A    between atoms: C_15  and  C_16
REMARK    7  A    between atoms: C_15  and  C_17
REMARK    8  A    between atoms: C_15  and  C_18
REMARK                            x       y       z     vdW  Elec       q    Type
REMARK                         _______ _______ _______ _____ _____    ______ ____
ROOT
ATOM      1  N   UNL     1       3.005   0.301  -1.412  0.00  0.00    +0.000 N 
ATOM      2  C   UNL     1       2.710  -0.398  -2.562  0.00  0.00    +0.000 C 
ATOM      3  N   UNL     1       2.028  -1.585  -2.494  0.00  0.00    +0.000 N 
ATOM      4  N   UNL     1       3.108   0.141  -3.696  0.00  0.00    +0.000 NA
ATOM      5  H   UNL     1       3.547   1.151  -1.555  0.00  0.00    +0.000 HD
ATOM      6  H   UNL     1       1.820  -2.031  -3.367  0.00  0.00    +0.000 HD
ENDROOT
BRANCH   4   7
ATOM      7  C   UNL     1       2.786  -0.426  -4.958  0.00  0.00    +0.000 A 
ATOM      8  C   UNL     1       1.484  -0.818  -5.286  0.00  0.00    +0.000 A 
ATOM      9  C   UNL     1       1.225  -1.376  -6.526  0.00  0.00    +0.000 A 
ATOM     10  N   UNL     1       2.157  -1.520  -7.483  0.00  0.00    +0.000 NA
ATOM     11  C   UNL     1       3.399  -1.081  -7.183  0.00  0.00    +0.000 A 
ATOM     12  C   UNL     1       3.758  -0.542  -5.952  0.00  0.00    +0.000 A 
ENDBRANCH   4   7
BRANCH   1  14
ATOM     13  C   UNL     1       0.985   0.135  -0.038  0.00  0.00    +0.000 C 
ATOM     14  C   UNL     1       2.527   0.031  -0.059  0.00  0.00    +0.000 C 
BRANCH  14  15
ATOM     15  C   UNL     1       3.125   0.936   1.056  0.00  0.00    +0.000 C 
ATOM     16  C   UNL     1       2.653   2.387   0.887  0.00  0.00    +0.000 C 
ATOM     17  C   UNL     1       2.643   0.403   2.432  0.00  0.00    +0.000 C 
ATOM     18  C   UNL     1       4.661   0.896   1.062  0.00  0.00    +0.000 C 
ENDBRANCH  14  15
ENDBRANCH   1  14
BRANCH   3  19
ATOM     19  C   UNL     1       1.577  -2.325  -1.359  0.00  0.00    +0.000 C 
ATOM     20  N   UNL     1       1.126  -2.868  -0.433  0.00  0.00    +0.000 NA
ENDBRANCH   3  19
TORSDOF 4
