REMARK  Name = Pindolol
REMARK  9 active torsions:
REMARK  status: ('A' for Active; 'I' for Inactive)
REMARK    1  A    between atoms: C_1  and  C_2
REMARK    2  A    between atoms: C_2  and  C_3
REMARK    3  A    between atoms: C_2  and  N_4
REMARK    4  A    between atoms: N_4  and  C_5
REMARK    5  A    between atoms: C_5  and  C_6
REMARK    6  A    between atoms: C_6  and  O_7
REMARK    7  A    between atoms: C_6  and  C_8
REMARK    8  A    between atoms: C_8  and  O_9
REMARK    9  A    between atoms: O_9  and  C_10
REMARK                            x       y       z     vdW  Elec       q    Type
REMARK                         _______ _______ _______ _____ _____    ______ ____
ROOT
ATOM      1  O   UNL     1       6.899  -2.872  -3.124  0.00  0.00    +0.000 OA
ENDROOT
BRANCH   1   2
ATOM      2  C   UNL     1       8.260  -2.942  -3.272  0.00  0.00    +0.000 A 
ATOM      3  C   UNL     1       9.134  -3.111  -2.190  0.00  0.00    +0.000 A 
ATOM      4  C   UNL     1      10.505  -3.262  -2.396  0.00  0.00    +0.000 A 
ATOM      5  C   UNL     1      11.051  -3.255  -3.684  0.00  0.00    +0.000 A 
ATOM      6  C   UNL     1      10.163  -3.116  -4.758  0.00  0.00    +0.000 A 
ATOM      7  C   UNL     1       8.787  -2.970  -4.580  0.00  0.00    +0.000 A 
ATOM      8  C   UNL     1       8.206  -2.898  -5.879  0.00  0.00    +0.000 A 
ATOM      9  C   UNL     1       9.218  -3.008  -6.801  0.00  0.00    +0.000 A 
ATOM     10  N   UNL     1      10.401  -3.114  -6.116  0.00  0.00    +0.000 N 
ATOM     11  H   UNL     1      11.311  -3.206  -6.539  0.00  0.00    +0.000 HD
ENDBRANCH   1   2
BRANCH   1  12
ATOM     12  C   UNL     1       6.457  -1.940  -2.136  0.00  0.00    +0.000 C 
BRANCH  12  13
ATOM     13  C   UNL     1       4.919  -1.911  -2.152  0.00  0.00    +0.000 C 
BRANCH  13  14
ATOM     14  O   UNL     1       4.412  -1.450  -3.413  0.00  0.00    +0.000 OA
ATOM     15  H   UNL     1       4.805  -0.581  -3.592  0.00  0.00    +0.000 HD
ENDBRANCH  13  14
BRANCH  13  16
ATOM     16  C   UNL     1       4.421  -0.982  -1.036  0.00  0.00    +0.000 C 
BRANCH  16  17
ATOM     17  N   UNL     1       2.957  -0.963  -0.968  0.00  0.00    +0.000 NA
ATOM     18  H   UNL     1       2.590  -0.717  -1.892  0.00  0.00    +0.000 HD
BRANCH  17  20
ATOM     19  C   UNL     1       0.920  -0.052   0.017  0.00  0.00    +0.000 C 
ATOM     20  C   UNL     1       2.449  -0.052   0.061  0.00  0.00    +0.000 C 
ATOM     21  C   UNL     1       2.911  -0.482   1.456  0.00  0.00    +0.000 C 
ENDBRANCH  17  20
ENDBRANCH  16  17
ENDBRANCH  13  16
ENDBRANCH  12  13
ENDBRANCH   1  12
TORSDOF 7
