REMARK  Name = Pioglitazone
REMARK  8 active torsions:
REMARK  status: ('A' for Active; 'I' for Inactive)
REMARK    1  A    between atoms: C_1  and  C_2
REMARK    2  A    between atoms: C_2  and  C_3
REMARK    3  A    between atoms: C_6  and  C_7
REMARK    4  A    between atoms: C_7  and  C_8
REMARK    5  A    between atoms: C_8  and  O_9
REMARK    6  A    between atoms: O_9  and  C_10
REMARK    7  A    between atoms: C_13  and  C_14
REMARK    8  A    between atoms: C_14  and  C_15
REMARK                            x       y       z     vdW  Elec       q    Type
REMARK                         _______ _______ _______ _____ _____    ______ ____
ROOT
ATOM      1  C   UNL     1       5.061  -2.066   8.095  0.00  0.00    +0.000 A 
ATOM      2  C   UNL     1       5.939  -2.664   8.995  0.00  0.00    +0.000 A 
ATOM      3  C   UNL     1       6.150  -2.096  10.256  0.00  0.00    +0.000 A 
ATOM      4  C   UNL     1       5.563  -0.865  10.591  0.00  0.00    +0.000 A 
ATOM      5  C   UNL     1       4.736  -0.262   9.648  0.00  0.00    +0.000 A 
ATOM      6  C   UNL     1       4.474  -0.852   8.423  0.00  0.00    +0.000 A 
ENDROOT
BRANCH   1   7
ATOM      7  O   UNL     1       4.757  -2.787   6.974  0.00  0.00    +0.000 OA
BRANCH   7   8
ATOM      8  C   UNL     1       4.406  -1.986   5.855  0.00  0.00    +0.000 C 
BRANCH   8   9
ATOM      9  C   UNL     1       3.870  -2.845   4.720  0.00  0.00    +0.000 C 
BRANCH   9  13
ATOM     10  C   UNL     1       3.016  -0.640   1.175  0.00  0.00    +0.000 A 
ATOM     11  C   UNL     1       2.860  -2.019   1.289  0.00  0.00    +0.000 A 
ATOM     12  N   UNL     1       3.138  -2.728   2.405  0.00  0.00    +0.000 NA
ATOM     13  C   UNL     1       3.608  -2.041   3.470  0.00  0.00    +0.000 A 
ATOM     14  C   UNL     1       3.827  -0.661   3.417  0.00  0.00    +0.000 A 
ATOM     15  C   UNL     1       3.534   0.043   2.263  0.00  0.00    +0.000 A 
BRANCH  10  17
ATOM     16  C   UNL     1       1.014   0.117  -0.046  0.00  0.00    +0.000 C 
ATOM     17  C   UNL     1       2.535   0.096  -0.037  0.00  0.00    +0.000 C 
ENDBRANCH  10  17
ENDBRANCH   9  13
ENDBRANCH   8   9
ENDBRANCH   7   8
ENDBRANCH   1   7
BRANCH   4  18
ATOM     18  C   UNL     1       5.872  -0.223  11.921  0.00  0.00    +0.000 C 
BRANCH  18  19
ATOM     19  C   UNL     1       5.292   1.164  12.268  0.00  0.00    +0.000 C 
ATOM     20  S   UNL     1       3.490   1.499  12.176  0.00  0.00    +0.000 S 
ATOM     21  C   UNL     1       3.721   3.010  11.310  0.00  0.00    +0.000 C 
ATOM     22  O   UNL     1       2.820   3.733  10.938  0.00  0.00    +0.000 OA
ATOM     23  N   UNL     1       5.041   3.228  11.087  0.00  0.00    +0.000 N 
ATOM     24  C   UNL     1       5.942   2.280  11.470  0.00  0.00    +0.000 C 
ATOM     25  O   UNL     1       7.137   2.370  11.223  0.00  0.00    +0.000 OA
ATOM     26  H   UNL     1       5.338   4.038  10.566  0.00  0.00    +0.000 HD
ENDBRANCH  18  19
ENDBRANCH   4  18
TORSDOF 7
