REMARK  Name = Piperaquine
REMARK  6 active torsions:
REMARK  status: ('A' for Active; 'I' for Inactive)
REMARK    1  A    between atoms: C_8  and  N_12
REMARK    2  A    between atoms: N_15  and  C_16
REMARK    3  A    between atoms: C_16  and  C_17
REMARK    4  A    between atoms: C_17  and  C_18
REMARK    5  A    between atoms: C_18  and  N_19
REMARK    6  A    between atoms: N_22  and  C_25
REMARK                            x       y       z     vdW  Elec       q    Type
REMARK                         _______ _______ _______ _____ _____    ______ ____
ROOT
ATOM      1  C   UNL     1      -3.821  -6.363   2.288  0.00  0.00    +0.000 C 
ENDROOT
BRANCH   1   2
ATOM      2  C   UNL     1      -4.315  -5.581   1.096  0.00  0.00    +0.000 C 
BRANCH   2   6
ATOM      3  N   UNL     1      -2.831  -2.557   0.024  0.00  0.00    +0.000 N 
ATOM      4  C   UNL     1      -4.015  -3.125  -0.643  0.00  0.00    +0.000 C 
ATOM      5  C   UNL     1      -3.705  -4.605  -1.024  0.00  0.00    +0.000 C 
ATOM      6  N   UNL     1      -3.228  -5.433   0.115  0.00  0.00    +0.000 NA
ATOM      7  C   UNL     1      -2.045  -4.753   0.708  0.00  0.00    +0.000 C 
ATOM      8  C   UNL     1      -2.373  -3.325   1.195  0.00  0.00    +0.000 C 
BRANCH   3  16
ATOM      9 CL   UNL     1       3.234   0.468   0.016  0.00  0.00    +0.000 Cl
ATOM     10  C   UNL     1       1.589  -0.030  -0.004  0.00  0.00    +0.000 A 
ATOM     11  C   UNL     1       0.562   0.914  -0.011  0.00  0.00    +0.000 A 
ATOM     12  C   UNL     1      -0.778   0.539  -0.014  0.00  0.00    +0.000 A 
ATOM     13  C   UNL     1      -1.100  -0.834  -0.032  0.00  0.00    +0.000 A 
ATOM     14  C   UNL     1      -0.035  -1.766  -0.079  0.00  0.00    +0.000 A 
ATOM     15  C   UNL     1       1.296  -1.379  -0.029  0.00  0.00    +0.000 A 
ATOM     16  C   UNL     1      -2.477  -1.216  -0.019  0.00  0.00    +0.000 A 
ATOM     17  C   UNL     1      -3.437  -0.209  -0.027  0.00  0.00    +0.000 A 
ATOM     18  C   UNL     1      -3.014   1.109  -0.009  0.00  0.00    +0.000 A 
ATOM     19  N   UNL     1      -1.720   1.494  -0.001  0.00  0.00    +0.000 NA
ENDBRANCH   3  16
ENDBRANCH   2   6
ENDBRANCH   1   2
BRANCH   1  20
ATOM     20  C   UNL     1      -4.903  -6.533   3.341  0.00  0.00    +0.000 C 
BRANCH  20  21
ATOM     21  N   UNL     1      -4.400  -7.328   4.470  0.00  0.00    +0.000 NA
ATOM     22  C   UNL     1      -5.523  -7.800   5.325  0.00  0.00    +0.000 C 
ATOM     23  C   UNL     1      -6.464  -8.839   4.646  0.00  0.00    +0.000 C 
ATOM     24  N   UNL     1      -5.655  -9.936   4.100  0.00  0.00    +0.000 N 
ATOM     25  C   UNL     1      -4.531  -9.541   3.248  0.00  0.00    +0.000 C 
ATOM     26  C   UNL     1      -3.647  -8.523   4.013  0.00  0.00    +0.000 C 
BRANCH  24  27
ATOM     27  C   UNL     1      -5.936 -11.266   4.357  0.00  0.00    +0.000 A 
ATOM     28  C   UNL     1      -7.175 -11.781   3.986  0.00  0.00    +0.000 A 
ATOM     29  C   UNL     1      -7.433 -13.123   4.196  0.00  0.00    +0.000 A 
ATOM     30  N   UNL     1      -6.562 -13.980   4.768  0.00  0.00    +0.000 NA
ATOM     31  C   UNL     1      -5.372 -13.507   5.151  0.00  0.00    +0.000 A 
ATOM     32  C   UNL     1      -5.002 -12.151   4.969  0.00  0.00    +0.000 A 
ATOM     33  C   UNL     1      -3.736 -11.755   5.443  0.00  0.00    +0.000 A 
ATOM     34  C   UNL     1      -2.834 -12.636   6.021  0.00  0.00    +0.000 A 
ATOM     35  C   UNL     1      -3.211 -13.956   6.176  0.00  0.00    +0.000 A 
ATOM     36 CL   UNL     1      -2.116 -15.061   6.907  0.00  0.00    +0.000 Cl
ATOM     37  C   UNL     1      -4.470 -14.377   5.754  0.00  0.00    +0.000 A 
ENDBRANCH  24  27
ENDBRANCH  20  21
ENDBRANCH   1  20
TORSDOF 6
