REMARK  Name = Piperazine
REMARK  0 active torsions:
REMARK  status: ('A' for Active; 'I' for Inactive)
REMARK                            x       y       z     vdW  Elec       q    Type
REMARK                         _______ _______ _______ _____ _____    ______ ____
ROOT
ATOM      1  C   UNL     1       0.676  -1.235   0.250  0.00  0.00    +0.000 C 
ATOM      2  C   UNL     1      -0.786  -1.163  -0.244  0.00  0.00    +0.000 C 
ATOM      3  N   UNL     1      -1.471   0.070   0.189  0.00  0.00    +0.000 NA
ATOM      4  C   UNL     1      -0.672   1.229  -0.255  0.00  0.00    +0.000 C 
ATOM      5  C   UNL     1       0.791   1.167   0.236  0.00  0.00    +0.000 C 
ATOM      6  N   UNL     1       1.466  -0.071  -0.177  0.00  0.00    +0.000 NA
ATOM      7  H   UNL     1      -1.489   0.076   1.209  0.00  0.00    +0.000 HD
ATOM      8  H   UNL     1       2.397  -0.114   0.236  0.00  0.00    +0.000 HD
ENDROOT
TORSDOF 0
