REMARK  Name = Piperonyl butoxide
REMARK  15 active torsions:
REMARK  status: ('A' for Active; 'I' for Inactive)
REMARK    1  A    between atoms: C_1  and  C_2
REMARK    2  A    between atoms: C_2  and  C_3
REMARK    3  A    between atoms: C_3  and  C_4
REMARK    4  A    between atoms: C_4  and  O_5
REMARK    5  A    between atoms: O_5  and  C_6
REMARK    6  A    between atoms: C_6  and  C_7
REMARK    7  A    between atoms: C_7  and  O_8
REMARK    8  A    between atoms: O_8  and  C_9
REMARK    9  A    between atoms: C_9  and  C_10
REMARK   10  A    between atoms: C_10  and  O_11
REMARK   11  A    between atoms: O_11  and  C_12
REMARK   12  A    between atoms: C_12  and  C_13
REMARK   13  A    between atoms: C_21  and  C_22
REMARK   14  A    between atoms: C_22  and  C_23
REMARK   15  A    between atoms: C_23  and  C_24
REMARK                            x       y       z     vdW  Elec       q    Type
REMARK                         _______ _______ _______ _____ _____    ______ ____
ROOT
ATOM      1  C   UNL     1      12.274   2.510  -6.319  0.00  0.00    +0.000 C 
ENDROOT
BRANCH   1   2
ATOM      2  C   UNL     1      12.683   3.384  -7.494  0.00  0.00    +0.000 A 
ATOM      3  C   UNL     1      13.270   2.668  -8.564  0.00  0.00    +0.000 A 
ATOM      4  C   UNL     1      13.614   3.328  -9.712  0.00  0.00    +0.000 A 
ATOM      5  C   UNL     1      13.410   4.674  -9.859  0.00  0.00    +0.000 A 
ATOM      6  O   UNL     1      13.804   5.125 -11.079  0.00  0.00    +0.000 OA
ATOM      7  C   UNL     1      14.347   3.914 -11.651  0.00  0.00    +0.000 C 
ATOM      8  O   UNL     1      14.166   2.756 -10.815  0.00  0.00    +0.000 OA
ATOM      9  C   UNL     1      12.859   5.432  -8.843  0.00  0.00    +0.000 A 
ATOM     10  C   UNL     1      12.493   4.807  -7.622  0.00  0.00    +0.000 A 
BRANCH  10  11
ATOM     11  C   UNL     1      11.903   5.769  -6.575  0.00  0.00    +0.000 C 
BRANCH  11  12
ATOM     12  C   UNL     1      11.592   5.143  -5.234  0.00  0.00    +0.000 C 
ATOM     13  C   UNL     1      10.913   5.918  -4.139  0.00  0.00    +0.000 C 
ENDBRANCH  11  12
ENDBRANCH  10  11
ENDBRANCH   1   2
BRANCH   1  14
ATOM     14  O   UNL     1      10.853   2.390  -6.295  0.00  0.00    +0.000 OA
BRANCH  14  15
ATOM     15  C   UNL     1      10.348   2.047  -5.004  0.00  0.00    +0.000 C 
BRANCH  15  16
ATOM     16  C   UNL     1       8.832   2.214  -5.001  0.00  0.00    +0.000 C 
BRANCH  16  17
ATOM     17  O   UNL     1       8.322   1.714  -3.768  0.00  0.00    +0.000 OA
BRANCH  17  18
ATOM     18  C   UNL     1       6.897   1.725  -3.760  0.00  0.00    +0.000 C 
BRANCH  18  19
ATOM     19  C   UNL     1       6.417   1.110  -2.458  0.00  0.00    +0.000 C 
BRANCH  19  20
ATOM     20  O   UNL     1       4.992   1.100  -2.436  0.00  0.00    +0.000 OA
BRANCH  20  21
ATOM     21  C   UNL     1       4.521   0.522  -1.224  0.00  0.00    +0.000 C 
BRANCH  21  22
ATOM     22  C   UNL     1       3.002   0.528  -1.237  0.00  0.00    +0.000 C 
BRANCH  22  24
ATOM     23  C   UNL     1       0.943  -0.087   0.058  0.00  0.00    +0.000 C 
ATOM     24  C   UNL     1       2.459  -0.082   0.050  0.00  0.00    +0.000 C 
ENDBRANCH  22  24
ENDBRANCH  21  22
ENDBRANCH  20  21
ENDBRANCH  19  20
ENDBRANCH  18  19
ENDBRANCH  17  18
ENDBRANCH  16  17
ENDBRANCH  15  16
ENDBRANCH  14  15
ENDBRANCH   1  14
TORSDOF 13
