REMARK  Name = Pipecuronium
REMARK  14 active torsions:
REMARK  status: ('A' for Active; 'I' for Inactive)
REMARK    1  A    between atoms: C_4  and  N_40
REMARK    2  A    between atoms: C_5  and  O_6
REMARK    3  A    between atoms: O_6  and  C_7
REMARK    4  A    between atoms: C_7  and  C_8
REMARK    5  A    between atoms: C_10  and  C_11
REMARK    6  A    between atoms: C_23  and  O_24
REMARK    7  A    between atoms: O_24  and  C_25
REMARK    8  A    between atoms: C_25  and  C_26
REMARK    9  A    between atoms: C_28  and  N_32
REMARK   10  A    between atoms: C_30  and  C_31
REMARK   11  A    between atoms: N_35  and  C_36
REMARK   12  A    between atoms: N_35  and  C_37
REMARK   13  A    between atoms: N_43  and  C_44
REMARK   14  A    between atoms: N_43  and  C_45
REMARK                            x       y       z     vdW  Elec       q    Type
REMARK                         _______ _______ _______ _____ _____    ______ ____
ROOT
ATOM      1  C   UNL     1       2.049  -0.002   0.034  0.00  0.00    +0.000 C 
ATOM      2  C   UNL     1       2.581  -1.259  -0.616  0.00  0.00    +0.000 C 
ATOM      3  C   UNL     1       2.687  -0.884  -2.114  0.00  0.00    +0.000 C 
ATOM      4  C   UNL     1       2.439   0.696  -2.178  0.00  0.00    +0.000 C 
ATOM      5  C   UNL     1       2.710   1.171  -0.724  0.00  0.00    +0.000 C 
ATOM      6  C   UNL     1       4.207   1.428  -0.393  0.00  0.00    +0.000 C 
ATOM      7  C   UNL     1       1.974   2.440  -0.306  0.00  0.00    +0.000 C 
ATOM      8  C   UNL     1       2.052   2.692   1.162  0.00  0.00    +0.000 C 
ATOM      9  C   UNL     1       1.605   1.470   1.966  0.00  0.00    +0.000 C 
ATOM     10  C   UNL     1       2.271   0.131   1.517  0.00  0.00    +0.000 C 
ATOM     11  C   UNL     1       1.768  -1.067   2.324  0.00  0.00    +0.000 C 
ATOM     12  C   UNL     1       1.841  -0.838   3.830  0.00  0.00    +0.000 C 
ATOM     13  C   UNL     1       1.150   0.473   4.176  0.00  0.00    +0.000 C 
ATOM     14  C   UNL     1       0.841   0.564   5.685  0.00  0.00    +0.000 C 
ATOM     15  C   UNL     1       0.204   1.922   6.089  0.00  0.00    +0.000 C 
ATOM     16  C   UNL     1       0.946   3.150   5.474  0.00  0.00    +0.000 C 
ATOM     17  C   UNL     1       1.104   2.971   3.939  0.00  0.00    +0.000 C 
ATOM     18  C   UNL     1       1.869   1.699   3.464  0.00  0.00    +0.000 C 
ATOM     19  C   UNL     1       3.478   1.853   3.448  0.00  0.00    +0.000 C 
ENDROOT
BRANCH  16  20
ATOM     20  N   UNL     1       2.208   3.487   6.164  0.00  0.00    +0.000 NA
ATOM     21  C   UNL     1       3.079   2.341   6.176  0.00  0.00    +0.000 C 
ATOM     22  C   UNL     1       4.529   2.674   6.366  0.00  0.00    +0.000 C 
ATOM     23  N   UNL     1       4.621   3.037   7.829  0.00  0.00    +0.000 N 
ATOM     24  C   UNL     1       4.434   1.776   8.687  0.00  0.00    +0.000 C 
ATOM     25  C   UNL     1       5.998   3.593   8.058  0.00  0.00    +0.000 C 
ATOM     26  C   UNL     1       3.538   4.148   8.138  0.00  0.00    +0.000 C 
ATOM     27  C   UNL     1       2.111   3.803   7.602  0.00  0.00    +0.000 C 
ENDBRANCH  16  20
BRANCH   3  28
ATOM     28  N   UNL     1       3.923  -1.382  -2.753  0.00  0.00    +0.000 NA
ATOM     29  C   UNL     1       4.114  -2.835  -2.633  0.00  0.00    +0.000 C 
ATOM     30  C   UNL     1       5.405  -3.271  -3.370  0.00  0.00    +0.000 C 
ATOM     31  N   UNL     1       6.673  -2.512  -2.872  0.00  0.00    +0.000 N 
ATOM     32  C   UNL     1       7.077  -2.973  -1.478  0.00  0.00    +0.000 C 
ATOM     33  C   UNL     1       7.817  -2.744  -3.832  0.00  0.00    +0.000 C 
ATOM     34  C   UNL     1       6.415  -1.016  -2.916  0.00  0.00    +0.000 C 
ATOM     35  C   UNL     1       5.112  -0.709  -2.239  0.00  0.00    +0.000 C 
ENDBRANCH   3  28
BRANCH   4  36
ATOM     36  O   UNL     1       3.251   1.301  -3.211  0.00  0.00    +0.000 OA
BRANCH  36  37
ATOM     37  C   UNL     1       3.301   2.594  -3.576  0.00  0.00    +0.000 C 
ATOM     38  C   UNL     1       2.303   3.548  -3.026  0.00  0.00    +0.000 C 
ATOM     39  O   UNL     1       4.209   2.987  -4.323  0.00  0.00    +0.000 OA
ENDBRANCH  36  37
ENDBRANCH   4  36
BRANCH  15  40
ATOM     40  O   UNL     1      -1.174   1.885   5.663  0.00  0.00    +0.000 OA
BRANCH  40  41
ATOM     41  C   UNL     1      -2.099   2.817   5.968  0.00  0.00    +0.000 C 
ATOM     42  C   UNL     1      -1.713   4.060   6.713  0.00  0.00    +0.000 C 
ATOM     43  O   UNL     1      -3.266   2.665   5.574  0.00  0.00    +0.000 OA
ENDBRANCH  40  41
ENDBRANCH  15  40
TORSDOF 6
