REMARK  Name = Piperacillin
REMARK  10 active torsions:
REMARK  status: ('A' for Active; 'I' for Inactive)
REMARK    1  A    between atoms: C_4  and  C_5
REMARK    2  A    between atoms: C_4  and  C_6
REMARK    3  A    between atoms: CA_7  and  C_35
REMARK    4  A    between atoms: CA_11  and  N_12
REMARK    5  A    between atoms: C_13  and  CA_15
REMARK    6  A    between atoms: CA_15  and  N_16
REMARK    7  A    between atoms: CA_15  and  C_29
REMARK    8  A    between atoms: N_22  and  C_23
REMARK    9  A    between atoms: C_23  and  C_24
REMARK   10  A    between atoms: C_35  and  O_36
REMARK                            x       y       z     vdW  Elec       q    Type
REMARK                         _______ _______ _______ _____ _____    ______ ____
ROOT
ATOM      1  CA  UNL     1       4.578   3.231  -2.881  0.00  0.00    +0.000 C 
ENDROOT
BRANCH   1   2
ATOM      2  N   UNL     1       3.972   2.875  -1.586  0.00  0.00    +0.000 N 
ATOM      3  C   UNL     1       3.834   1.557  -1.228  0.00  0.00    +0.000 C 
ATOM      4  O   UNL     1       4.172   0.671  -2.013  0.00  0.00    +0.000 OA
ATOM      5  N   UNL     1       3.254   1.294  -0.009  0.00  0.00    +0.000 N 
ATOM      6  C   UNL     1       2.075   1.979   0.509  0.00  0.00    +0.000 C 
ATOM      7  C   UNL     1       1.097   0.976   1.143  0.00  0.00    +0.000 C 
ATOM      8  N   UNL     1       1.756   0.206   2.197  0.00  0.00    +0.000 N 
ATOM      9  C   UNL     1       3.104  -0.146   2.033  0.00  0.00    +0.000 C 
ATOM     10  O   UNL     1       3.775  -0.760   2.854  0.00  0.00    +0.000 OA
ATOM     11  C   UNL     1       3.827   0.279   0.746  0.00  0.00    +0.000 C 
ATOM     12  O   UNL     1       4.905  -0.260   0.508  0.00  0.00    +0.000 OA
ATOM     13  H   UNL     1       3.692   3.624  -0.972  0.00  0.00    +0.000 HD
BRANCH   8  14
ATOM     14  C   UNL     1       0.944  -0.282   3.331  0.00  0.00    +0.000 C 
ATOM     15  C   UNL     1       1.682  -1.117   4.372  0.00  0.00    +0.000 C 
ENDBRANCH   8  14
ENDBRANCH   1   2
BRANCH   1  16
ATOM     16  C   UNL     1       5.187   4.634  -2.823  0.00  0.00    +0.000 A 
ATOM     17  C   UNL     1       6.502   4.826  -2.368  0.00  0.00    +0.000 A 
ATOM     18  C   UNL     1       7.002   6.119  -2.161  0.00  0.00    +0.000 A 
ATOM     19  C   UNL     1       6.239   7.236  -2.497  0.00  0.00    +0.000 A 
ATOM     20  C   UNL     1       4.956   7.065  -2.996  0.00  0.00    +0.000 A 
ATOM     21  C   UNL     1       4.436   5.781  -3.141  0.00  0.00    +0.000 A 
ENDBRANCH   1  16
BRANCH   1  23
ATOM     22  N   UNL     1       3.746   2.333  -5.063  0.00  0.00    +0.000 N 
ATOM     23  C   UNL     1       3.472   3.124  -3.967  0.00  0.00    +0.000 C 
ATOM     24  O   UNL     1       2.404   3.737  -3.891  0.00  0.00    +0.000 OA
ATOM     25  H   UNL     1       4.543   1.701  -5.039  0.00  0.00    +0.000 HD
BRANCH  22  35
ATOM     26  C   UNL     1       3.022   1.270  -7.306  0.00  0.00    +0.000 C 
ATOM     27  S   UNL     1       4.263  -0.044  -7.050  0.00  0.00    +0.000 S 
ATOM     28  C   UNL     1       3.050  -1.338  -7.640  0.00  0.00    +0.000 C 
ATOM     29  C   UNL     1       3.510  -2.673  -7.049  0.00  0.00    +0.000 C 
ATOM     30  C   UNL     1       3.151  -1.306  -9.177  0.00  0.00    +0.000 C 
ATOM     31  CA  UNL     1       1.697  -0.873  -7.052  0.00  0.00    +0.000 C 
ATOM     32  N   UNL     1       1.729   0.605  -7.057  0.00  0.00    +0.000 N 
ATOM     33  C   UNL     1       1.494   1.320  -5.907  0.00  0.00    +0.000 C 
ATOM     34  O   UNL     1       0.694   1.135  -5.009  0.00  0.00    +0.000 OA
ATOM     35  CA  UNL     1       2.729   2.232  -6.150  0.00  0.00    +0.000 C 
BRANCH  31  36
ATOM     36  C   UNL     1       0.379  -1.397  -7.672  0.00  0.00    +0.000 C 
ATOM     37  OXT UNL     1      -0.724  -0.999  -7.314  0.00  0.00    +0.000 OA
BRANCH  36  38
ATOM     38  O   UNL     1       0.431  -2.348  -8.626  0.00  0.00    +0.000 OA
ATOM     39  H   UNL     1       1.246  -2.846  -8.790  0.00  0.00    +0.000 HD
ENDBRANCH  36  38
ENDBRANCH  31  36
ENDBRANCH  22  35
ENDBRANCH   1  23
TORSDOF 7
