REMARK  Name = Pipotiazine
REMARK  11 active torsions:
REMARK  status: ('A' for Active; 'I' for Inactive)
REMARK    1  A    between atoms: C_1  and  N_2
REMARK    2  A    between atoms: N_2  and  C_3
REMARK    3  A    between atoms: N_2  and  S_4
REMARK    4  A    between atoms: S_4  and  C_7
REMARK    5  A    between atoms: N_18  and  C_19
REMARK    6  A    between atoms: C_19  and  C_20
REMARK    7  A    between atoms: C_20  and  C_21
REMARK    8  A    between atoms: C_21  and  N_22
REMARK    9  A    between atoms: C_25  and  C_26
REMARK   10  A    between atoms: C_26  and  C_27
REMARK   11  A    between atoms: C_27  and  O_28
REMARK                            x       y       z     vdW  Elec       q    Type
REMARK                         _______ _______ _______ _____ _____    ______ ____
ROOT
ATOM      1  C   UNL     1       4.845   1.360  -0.764  0.00  0.00    +0.000 A 
ATOM      2  C   UNL     1       5.572   0.282  -0.277  0.00  0.00    +0.000 A 
ATOM      3  C   UNL     1       6.966   0.248  -0.341  0.00  0.00    +0.000 A 
ATOM      4  C   UNL     1       7.645   1.390  -0.794  0.00  0.00    +0.000 A 
ATOM      5  S   UNL     1       9.429   1.421  -0.839  0.00  0.00    +0.000 S 
ATOM      6  C   UNL     1       9.718  -0.302  -1.223  0.00  0.00    +0.000 A 
ATOM      7  C   UNL     1      10.846  -0.633  -1.986  0.00  0.00    +0.000 A 
ATOM      8  C   UNL     1      11.105  -1.958  -2.334  0.00  0.00    +0.000 A 
ATOM      9  C   UNL     1      10.223  -2.955  -1.953  0.00  0.00    +0.000 A 
ATOM     10  C   UNL     1       9.067  -2.613  -1.256  0.00  0.00    +0.000 A 
ATOM     11  C   UNL     1       8.815  -1.301  -0.811  0.00  0.00    +0.000 A 
ATOM     12  N   UNL     1       7.637  -0.977  -0.102  0.00  0.00    +0.000 N 
ATOM     13  C   UNL     1       6.923   2.519  -1.197  0.00  0.00    +0.000 A 
ATOM     14  C   UNL     1       5.525   2.498  -1.204  0.00  0.00    +0.000 A 
ENDROOT
BRANCH   1  15
ATOM     15  S   UNL     1       3.070   1.341  -0.860  0.00  0.00    +0.000 S 
ATOM     16  O   UNL     1       2.709   1.225  -2.253  0.00  0.00    +0.000 OA
ATOM     17  O   UNL     1       2.620   2.471  -0.063  0.00  0.00    +0.000 OA
BRANCH  15  19
ATOM     18  C   UNL     1       1.001  -0.049   0.048  0.00  0.00    +0.000 C 
ATOM     19  N   UNL     1       2.494  -0.093  -0.079  0.00  0.00    +0.000 NA
ATOM     20  C   UNL     1       2.837  -1.382  -0.738  0.00  0.00    +0.000 C 
ENDBRANCH  15  19
ENDBRANCH   1  15
BRANCH  12  21
ATOM     21  C   UNL     1       7.252  -1.656   1.173  0.00  0.00    +0.000 C 
BRANCH  21  22
ATOM     22  C   UNL     1       8.175  -2.787   1.529  0.00  0.00    +0.000 C 
BRANCH  22  23
ATOM     23  C   UNL     1       7.898  -3.602   2.773  0.00  0.00    +0.000 C 
BRANCH  23  24
ATOM     24  N   UNL     1       8.871  -4.715   2.910  0.00  0.00    +0.000 NA
ATOM     25  C   UNL     1       8.268  -6.001   2.533  0.00  0.00    +0.000 C 
ATOM     26  C   UNL     1       9.264  -7.136   2.781  0.00  0.00    +0.000 C 
ATOM     27  C   UNL     1      10.560  -6.943   1.975  0.00  0.00    +0.000 C 
ATOM     28  C   UNL     1      11.156  -5.580   2.333  0.00  0.00    +0.000 C 
ATOM     29  C   UNL     1      10.126  -4.484   2.159  0.00  0.00    +0.000 C 
BRANCH  27  30
ATOM     30  C   UNL     1      10.317  -7.067   0.456  0.00  0.00    +0.000 C 
BRANCH  30  31
ATOM     31  C   UNL     1       9.768  -8.435   0.078  0.00  0.00    +0.000 C 
BRANCH  31  32
ATOM     32  O   UNL     1       9.553  -8.492  -1.323  0.00  0.00    +0.000 OA
ATOM     33  H   UNL     1       8.867  -7.836  -1.533  0.00  0.00    +0.000 HD
ENDBRANCH  31  32
ENDBRANCH  30  31
ENDBRANCH  27  30
ENDBRANCH  23  24
ENDBRANCH  22  23
ENDBRANCH  21  22
ENDBRANCH  12  21
TORSDOF 9
