REMARK  Name = Pipobroman
REMARK  4 active torsions:
REMARK  status: ('A' for Active; 'I' for Inactive)
REMARK    1  A    between atoms: C_2  and  C_3
REMARK    2  A    between atoms: C_3  and  C_4
REMARK    3  A    between atoms: C_12  and  C_14
REMARK    4  A    between atoms: C_14  and  C_15
REMARK                            x       y       z     vdW  Elec       q    Type
REMARK                         _______ _______ _______ _____ _____    ______ ____
ROOT
ATOM      1  C   UNL     1       5.028   1.495  -0.310  0.00  0.00    +0.000 C 
ATOM      2  O   UNL     1       5.713   0.474  -0.271  0.00  0.00    +0.000 OA
ATOM      3  N   UNL     1       5.564   2.749  -0.562  0.00  0.00    +0.000 N 
ATOM      4  C   UNL     1       6.810   2.956  -1.328  0.00  0.00    +0.000 C 
ATOM      5  C   UNL     1       6.599   4.108  -2.349  0.00  0.00    +0.000 C 
ATOM      6  N   UNL     1       6.049   5.318  -1.692  0.00  0.00    +0.000 N 
ATOM      7  C   UNL     1       4.842   5.066  -0.896  0.00  0.00    +0.000 C 
ATOM      8  C   UNL     1       5.100   3.953   0.120  0.00  0.00    +0.000 C 
ATOM      9  C   UNL     1       6.671   6.550  -1.844  0.00  0.00    +0.000 C 
ATOM     10  O   UNL     1       7.679   6.685  -2.537  0.00  0.00    +0.000 OA
ENDROOT
BRANCH   1  11
ATOM     11  C   UNL     1       3.500   1.447  -0.242  0.00  0.00    +0.000 C 
BRANCH  11  13
ATOM     12 BR   UNL     1       1.021   0.077   0.067  0.00  0.00    +0.000 Br
ATOM     13  C   UNL     1       2.977   0.058   0.071  0.00  0.00    +0.000 C 
ENDBRANCH  11  13
ENDBRANCH   1  11
BRANCH   9  14
ATOM     14  C   UNL     1       6.072   7.743  -1.104  0.00  0.00    +0.000 C 
BRANCH  14  15
ATOM     15  C   UNL     1       6.868   9.011  -1.368  0.00  0.00    +0.000 C 
ATOM     16 BR   UNL     1       6.076  10.511  -0.402  0.00  0.00    +0.000 Br
ENDBRANCH  14  15
ENDBRANCH   9  14
TORSDOF 4
