REMARK  Name = Pipradrol
REMARK  4 active torsions:
REMARK  status: ('A' for Active; 'I' for Inactive)
REMARK    1  A    between atoms: C_7  and  C_8
REMARK    2  A    between atoms: C_8  and  O_9
REMARK    3  A    between atoms: C_8  and  C_10
REMARK    4  A    between atoms: C_8  and  C_16
REMARK                            x       y       z     vdW  Elec       q    Type
REMARK                         _______ _______ _______ _____ _____    ______ ____
ROOT
ATOM      1  C   UNL     1       1.998   1.286  -2.140  0.00  0.00    +0.000 C 
ENDROOT
BRANCH   1   8
ATOM      2  H   UNL     1       0.986  -0.018   0.126  0.00  0.00    +0.000 HD
ATOM      3  N   UNL     1       2.007  -0.012   0.149  0.00  0.00    +0.000 NA
ATOM      4  C   UNL     1       2.530  -1.281  -0.347  0.00  0.00    +0.000 C 
ATOM      5  C   UNL     1       4.059  -1.309  -0.436  0.00  0.00    +0.000 C 
ATOM      6  C   UNL     1       4.686  -0.050  -1.021  0.00  0.00    +0.000 C 
ATOM      7  C   UNL     1       4.037   1.177  -0.393  0.00  0.00    +0.000 C 
ATOM      8  C   UNL     1       2.515   1.166  -0.612  0.00  0.00    +0.000 C 
ENDBRANCH   1   8
BRANCH   1   9
ATOM      9  C   UNL     1       0.456   1.191  -2.123  0.00  0.00    +0.000 A 
ATOM     10  C   UNL     1      -0.250   0.171  -2.783  0.00  0.00    +0.000 A 
ATOM     11  C   UNL     1      -1.635   0.234  -2.913  0.00  0.00    +0.000 A 
ATOM     12  C   UNL     1      -2.344   1.286  -2.340  0.00  0.00    +0.000 A 
ATOM     13  C   UNL     1      -1.675   2.259  -1.606  0.00  0.00    +0.000 A 
ATOM     14  C   UNL     1      -0.292   2.195  -1.471  0.00  0.00    +0.000 A 
ENDBRANCH   1   9
BRANCH   1  15
ATOM     15  C   UNL     1       2.545   2.533  -2.853  0.00  0.00    +0.000 A 
ATOM     16  C   UNL     1       1.745   3.527  -3.434  0.00  0.00    +0.000 A 
ATOM     17  C   UNL     1       2.317   4.601  -4.111  0.00  0.00    +0.000 A 
ATOM     18  C   UNL     1       3.699   4.753  -4.172  0.00  0.00    +0.000 A 
ATOM     19  C   UNL     1       4.517   3.772  -3.634  0.00  0.00    +0.000 A 
ATOM     20  C   UNL     1       3.934   2.661  -3.059  0.00  0.00    +0.000 A 
ENDBRANCH   1  15
BRANCH   1  21
ATOM     21  O   UNL     1       2.539   0.261  -2.990  0.00  0.00    +0.000 OA
ATOM     22  H   UNL     1       2.112  -0.576  -2.798  0.00  0.00    +0.000 HD
ENDBRANCH   1  21
TORSDOF 4
