REMARK  Name = Piracetam
REMARK  2 active torsions:
REMARK  status: ('A' for Active; 'I' for Inactive)
REMARK    1  A    between atoms: C_2  and  C_4
REMARK    2  A    between atoms: C_4  and  N_5
REMARK                            x       y       z     vdW  Elec       q    Type
REMARK                         _______ _______ _______ _____ _____    ______ ____
ROOT
ATOM      1  C   UNL     1       3.280   0.999  -0.563  0.00  0.00    +0.000 C 
ENDROOT
BRANCH   1   2
ATOM      2  N   UNL     1       4.718   0.806  -0.395  0.00  0.00    +0.000 N 
ATOM      3  C   UNL     1       5.673   1.891  -0.317  0.00  0.00    +0.000 C 
ATOM      4  C   UNL     1       7.015   1.218  -0.580  0.00  0.00    +0.000 C 
ATOM      5  C   UNL     1       6.789  -0.215  -0.131  0.00  0.00    +0.000 C 
ATOM      6  C   UNL     1       5.354  -0.424  -0.521  0.00  0.00    +0.000 C 
ATOM      7  O   UNL     1       4.867  -1.494  -0.849  0.00  0.00    +0.000 OA
ENDBRANCH   1   2
BRANCH   1   9
ATOM      8  N   UNL     1       1.085  -0.026  -0.014  0.00  0.00    +0.000 N 
ATOM      9  C   UNL     1       2.437  -0.073   0.169  0.00  0.00    +0.000 C 
ATOM     10  O   UNL     1       2.876  -0.931   0.930  0.00  0.00    +0.000 OA
ATOM     11  H   UNL     1       0.566  -0.746   0.475  0.00  0.00    +0.000 HD
ATOM     12  H   UNL     1       0.581   0.736  -0.441  0.00  0.00    +0.000 HD
ENDBRANCH   1   9
TORSDOF 2
