REMARK  Name = Pirbuterol
REMARK  11 active torsions:
REMARK  status: ('A' for Active; 'I' for Inactive)
REMARK    1  A    between atoms: C_1  and  C_2
REMARK    2  A    between atoms: C_2  and  C_3
REMARK    3  A    between atoms: C_2  and  C_4
REMARK    4  A    between atoms: C_2  and  N_5
REMARK    5  A    between atoms: N_5  and  C_6
REMARK    6  A    between atoms: C_6  and  C_7
REMARK    7  A    between atoms: C_7  and  O_8
REMARK    8  A    between atoms: C_7  and  C_9
REMARK    9  A    between atoms: CA_11  and  C_12
REMARK   10  A    between atoms: C_12  and  O_13
REMARK   11  A    between atoms: C_14  and  O_15
REMARK                            x       y       z     vdW  Elec       q    Type
REMARK                         _______ _______ _______ _____ _____    ______ ____
ROOT
ATOM      1  C   UNL     1       6.464  -2.653   1.372  0.00  0.00    +0.000 A 
ATOM      2  N   UNL     1       7.135  -1.950   2.329  0.00  0.00    +0.000 NA
ATOM      3  CA  UNL     1       8.499  -1.982   2.321  0.00  0.00    +0.000 A 
ATOM      4  C   UNL     1       9.208  -2.716   1.369  0.00  0.00    +0.000 A 
ATOM      5  C   UNL     1       8.517  -3.391   0.377  0.00  0.00    +0.000 A 
ATOM      6  C   UNL     1       7.134  -3.340   0.363  0.00  0.00    +0.000 A 
ENDROOT
BRANCH   4   7
ATOM      7  O   UNL     1      10.568  -2.825   1.328  0.00  0.00    +0.000 OA
ATOM      8  H   UNL     1      10.935  -2.130   1.915  0.00  0.00    +0.000 HD
ENDBRANCH   4   7
BRANCH   1   9
ATOM      9  C   UNL     1       4.939  -2.627   1.406  0.00  0.00    +0.000 C 
BRANCH   9  10
ATOM     10  O   UNL     1       4.373  -3.772   0.742  0.00  0.00    +0.000 OA
ATOM     11  H   UNL     1       4.501  -3.642  -0.211  0.00  0.00    +0.000 HD
ENDBRANCH   9  10
BRANCH   9  12
ATOM     12  C   UNL     1       4.447  -1.334   0.730  0.00  0.00    +0.000 C 
BRANCH  12  13
ATOM     13  N   UNL     1       2.979  -1.241   0.664  0.00  0.00    +0.000 NA
ATOM     14  H   UNL     1       2.602  -2.089   0.236  0.00  0.00    +0.000 HD
BRANCH  13  16
ATOM     15  C   UNL     1       0.934  -0.089   0.016  0.00  0.00    +0.000 C 
ATOM     16  C   UNL     1       2.474  -0.035  -0.014  0.00  0.00    +0.000 C 
ATOM     17  C   UNL     1       2.926   0.019  -1.484  0.00  0.00    +0.000 C 
ATOM     18  C   UNL     1       2.924   1.231   0.735  0.00  0.00    +0.000 C 
ENDBRANCH  13  16
ENDBRANCH  12  13
ENDBRANCH   9  12
ENDBRANCH   1   9
BRANCH   3  19
ATOM     19  C   UNL     1       9.188  -1.169   3.395  0.00  0.00    +0.000 C 
BRANCH  19  20
ATOM     20  O   UNL     1      10.607  -1.376   3.415  0.00  0.00    +0.000 OA
ATOM     21  H   UNL     1      10.741  -2.199   3.924  0.00  0.00    +0.000 HD
ENDBRANCH  19  20
ENDBRANCH   3  19
TORSDOF 8
