REMARK  Name = Piretanide
REMARK  7 active torsions:
REMARK  status: ('A' for Active; 'I' for Inactive)
REMARK    1  A    between atoms: N_1  and  S_2
REMARK    2  A    between atoms: S_2  and  C_5
REMARK    3  A    between atoms: C_7  and  C_23
REMARK    4  A    between atoms: C_9  and  N_10
REMARK    5  A    between atoms: C_15  and  O_16
REMARK    6  A    between atoms: O_16  and  C_17
REMARK    7  A    between atoms: C_23  and  O_24
REMARK                            x       y       z     vdW  Elec       q    Type
REMARK                         _______ _______ _______ _____ _____    ______ ____
ROOT
ATOM      1  C   UNL     1       3.146  -1.526  -0.594  0.00  0.00    +0.000 A 
ATOM      2  C   UNL     1       2.435  -2.702  -0.293  0.00  0.00    +0.000 A 
ATOM      3  C   UNL     1       2.971  -3.960  -0.546  0.00  0.00    +0.000 A 
ATOM      4  C   UNL     1       4.185  -4.047  -1.243  0.00  0.00    +0.000 A 
ATOM      5  C   UNL     1       4.962  -2.907  -1.545  0.00  0.00    +0.000 A 
ATOM      6  C   UNL     1       4.440  -1.607  -1.186  0.00  0.00    +0.000 A 
ENDROOT
BRANCH   5   7
ATOM      7  N   UNL     1       6.209  -3.116  -2.113  0.00  0.00    +0.000 N 
ATOM      8  C   UNL     1       7.466  -2.670  -1.528  0.00  0.00    +0.000 C 
ATOM      9  C   UNL     1       8.259  -2.235  -2.753  0.00  0.00    +0.000 C 
ATOM     10  C   UNL     1       7.891  -3.293  -3.788  0.00  0.00    +0.000 C 
ATOM     11  C   UNL     1       6.446  -3.708  -3.434  0.00  0.00    +0.000 C 
ENDBRANCH   5   7
BRANCH   1  12
ATOM     12  S   UNL     1       2.360  -0.059   0.030  0.00  0.00    +0.000 S 
ATOM     13  O   UNL     1       2.339   0.984  -0.970  0.00  0.00    +0.000 OA
ATOM     14  O   UNL     1       2.741   0.103   1.411  0.00  0.00    +0.000 OA
BRANCH  12  15
ATOM     15  N   UNL     1       0.705  -0.314   0.162  0.00  0.00    +0.000 NA
ATOM     16  H   UNL     1       0.373   0.664   0.196  0.00  0.00    +0.000 HD
ATOM     17  H   UNL     1       0.472  -0.752   1.047  0.00  0.00    +0.000 HD
ENDBRANCH  12  15
ENDBRANCH   1  12
BRANCH   3  18
ATOM     18  C   UNL     1       2.358  -5.219  -0.018  0.00  0.00    +0.000 C 
ATOM     19  O   UNL     1       2.859  -6.314  -0.220  0.00  0.00    +0.000 OA
BRANCH  18  20
ATOM     20  O   UNL     1       1.256  -5.090   0.750  0.00  0.00    +0.000 OA
ATOM     21  H   UNL     1       0.900  -4.211   0.948  0.00  0.00    +0.000 HD
ENDBRANCH  18  20
ENDBRANCH   3  18
BRANCH   6  22
ATOM     22  O   UNL     1       5.293  -0.570  -1.559  0.00  0.00    +0.000 OA
BRANCH  22  23
ATOM     23  C   UNL     1       5.095   0.733  -1.186  0.00  0.00    +0.000 A 
ATOM     24  C   UNL     1       4.853   1.676  -2.193  0.00  0.00    +0.000 A 
ATOM     25  C   UNL     1       4.534   2.997  -1.854  0.00  0.00    +0.000 A 
ATOM     26  C   UNL     1       4.351   3.347  -0.516  0.00  0.00    +0.000 A 
ATOM     27  C   UNL     1       4.620   2.414   0.485  0.00  0.00    +0.000 A 
ATOM     28  C   UNL     1       5.088   1.134   0.151  0.00  0.00    +0.000 A 
ENDBRANCH  22  23
ENDBRANCH   6  22
TORSDOF 7
