REMARK  Name = Pirenzepine
REMARK  3 active torsions:
REMARK  status: ('A' for Active; 'I' for Inactive)
REMARK    1  A    between atoms: C_1  and  N_2
REMARK    2  A    between atoms: N_5  and  C_6
REMARK    3  A    between atoms: C_6  and  C_7
REMARK                            x       y       z     vdW  Elec       q    Type
REMARK                         _______ _______ _______ _____ _____    ______ ____
ROOT
ATOM      1  C   UNL     1      -2.902  -1.328   2.127  0.00  0.00    +0.000 C 
ATOM      2  O   UNL     1      -3.259  -2.222   1.351  0.00  0.00    +0.000 OA
ATOM      3  N   UNL     1      -3.058  -1.498   3.506  0.00  0.00    +0.000 N 
ATOM      4  C   UNL     1      -2.948  -2.812   4.023  0.00  0.00    +0.000 A 
ATOM      5  C   UNL     1      -1.666  -3.364   4.158  0.00  0.00    +0.000 A 
ATOM      6  C   UNL     1      -1.489  -4.620   4.752  0.00  0.00    +0.000 A 
ATOM      7  C   UNL     1      -2.591  -5.357   5.183  0.00  0.00    +0.000 A 
ATOM      8  C   UNL     1      -3.870  -4.836   5.019  0.00  0.00    +0.000 A 
ATOM      9  C   UNL     1      -4.030  -3.569   4.441  0.00  0.00    +0.000 A 
ATOM     10  C   UNL     1      -5.362  -2.990   4.401  0.00  0.00    +0.000 C 
ATOM     11  O   UNL     1      -6.291  -3.538   3.820  0.00  0.00    +0.000 OA
ATOM     12  N   UNL     1      -5.509  -1.946   5.269  0.00  0.00    +0.000 N 
ATOM     13  C   UNL     1      -4.774  -0.743   5.173  0.00  0.00    +0.000 A 
ATOM     14  C   UNL     1      -3.691  -0.496   4.297  0.00  0.00    +0.000 A 
ATOM     15  N   UNL     1      -3.140   0.742   4.201  0.00  0.00    +0.000 NA
ATOM     16  C   UNL     1      -3.627   1.735   4.975  0.00  0.00    +0.000 A 
ATOM     17  C   UNL     1      -4.683   1.577   5.846  0.00  0.00    +0.000 A 
ATOM     18  C   UNL     1      -5.269   0.322   5.936  0.00  0.00    +0.000 A 
ATOM     19  H   UNL     1      -6.383  -1.941   5.780  0.00  0.00    +0.000 HD
ENDROOT
BRANCH   1  20
ATOM     20  C   UNL     1      -2.150  -0.057   1.663  0.00  0.00    +0.000 C 
BRANCH  20  25
ATOM     21  C   UNL     1       2.481   0.012   0.057  0.00  0.00    +0.000 C 
ATOM     22  N   UNL     1       1.072   0.015  -0.296  0.00  0.00    +0.000 NA
ATOM     23  C   UNL     1       0.378   1.203   0.233  0.00  0.00    +0.000 C 
ATOM     24  C   UNL     1      -1.122   1.202  -0.160  0.00  0.00    +0.000 C 
ATOM     25  N   UNL     1      -1.858  -0.038   0.203  0.00  0.00    +0.000 NA
ATOM     26  C   UNL     1      -1.063  -1.208  -0.238  0.00  0.00    +0.000 C 
ATOM     27  C   UNL     1       0.403  -1.186   0.221  0.00  0.00    +0.000 C 
ENDBRANCH  20  25
ENDBRANCH   1  20
TORSDOF 2
