REMARK  Name = Pirfenidone
REMARK  2 active torsions:
REMARK  status: ('A' for Active; 'I' for Inactive)
REMARK    1  A    between atoms: C_1  and  C_2
REMARK    2  A    between atoms: N_4  and  C_9
REMARK                            x       y       z     vdW  Elec       q    Type
REMARK                         _______ _______ _______ _____ _____    ______ ____
ROOT
ATOM      1  C   UNL     1       1.103   0.064   0.103  0.00  0.00    +0.000 C 
ATOM      2  C   UNL     1       2.601   0.126   0.084  0.00  0.00    +0.000 A 
ATOM      3  C   UNL     1       3.301   1.273   0.122  0.00  0.00    +0.000 A 
ATOM      4  N   UNL     1       4.682   1.302  -0.079  0.00  0.00    +0.000 N 
ATOM      5  C   UNL     1       5.415   0.121  -0.238  0.00  0.00    +0.000 A 
ATOM      6  O   UNL     1       6.624   0.039  -0.478  0.00  0.00    +0.000 OA
ATOM      7  C   UNL     1       4.655  -1.144  -0.064  0.00  0.00    +0.000 A 
ATOM      8  C   UNL     1       3.319  -1.128   0.012  0.00  0.00    +0.000 A 
ENDROOT
BRANCH   4   9
ATOM      9  C   UNL     1       5.341   2.549  -0.302  0.00  0.00    +0.000 A 
ATOM     10  C   UNL     1       5.273   3.559   0.662  0.00  0.00    +0.000 A 
ATOM     11  C   UNL     1       5.777   4.830   0.383  0.00  0.00    +0.000 A 
ATOM     12  C   UNL     1       6.413   5.080  -0.833  0.00  0.00    +0.000 A 
ATOM     13  C   UNL     1       6.573   4.050  -1.758  0.00  0.00    +0.000 A 
ATOM     14  C   UNL     1       6.010   2.797  -1.509  0.00  0.00    +0.000 A 
ENDBRANCH   4   9
TORSDOF 1
