REMARK  Name = Piritramide
REMARK  8 active torsions:
REMARK  status: ('A' for Active; 'I' for Inactive)
REMARK    1  A    between atoms: C_2  and  C_4
REMARK    2  A    between atoms: C_4  and  N_27
REMARK    3  A    between atoms: N_7  and  C_8
REMARK    4  A    between atoms: C_8  and  C_9
REMARK    5  A    between atoms: C_9  and  C_10
REMARK    6  A    between atoms: C_10  and  C_11
REMARK    7  A    between atoms: C_10  and  C_13
REMARK    8  A    between atoms: C_10  and  C_19
REMARK                            x       y       z     vdW  Elec       q    Type
REMARK                         _______ _______ _______ _____ _____    ______ ____
ROOT
ATOM      1  C   UNL     1       3.261   0.861  -1.043  0.00  0.00    +0.000 C 
ATOM      2  C   UNL     1       3.824   2.102  -0.312  0.00  0.00    +0.000 C 
ATOM      3  C   UNL     1       2.737   3.102  -0.030  0.00  0.00    +0.000 C 
ATOM      4  N   UNL     1       2.085   3.457  -1.301  0.00  0.00    +0.000 NA
ATOM      5  C   UNL     1       1.377   2.341  -1.896  0.00  0.00    +0.000 C 
ATOM      6  C   UNL     1       2.366   1.265  -2.233  0.00  0.00    +0.000 C 
ENDROOT
BRANCH   1   7
ATOM      7  N   UNL     1       4.374   0.009  -1.607  0.00  0.00    +0.000 NA
ATOM      8  C   UNL     1       5.191   0.739  -2.612  0.00  0.00    +0.000 C 
ATOM      9  C   UNL     1       6.237  -0.152  -3.255  0.00  0.00    +0.000 C 
ATOM     10  C   UNL     1       7.147  -0.741  -2.196  0.00  0.00    +0.000 C 
ATOM     11  C   UNL     1       6.324  -1.436  -1.128  0.00  0.00    +0.000 C 
ATOM     12  C   UNL     1       5.269  -0.506  -0.555  0.00  0.00    +0.000 C 
ENDBRANCH   1   7
BRANCH   1  14
ATOM     13  N   UNL     1       1.056  -0.003  -0.015  0.00  0.00    +0.000 N 
ATOM     14  C   UNL     1       2.421   0.043   0.049  0.00  0.00    +0.000 C 
ATOM     15  O   UNL     1       2.902  -0.467   1.048  0.00  0.00    +0.000 OA
ATOM     16  H   UNL     1       0.604  -0.516   0.732  0.00  0.00    +0.000 HD
ATOM     17  H   UNL     1       0.474   0.289  -0.777  0.00  0.00    +0.000 HD
ENDBRANCH   1  14
BRANCH   4  18
ATOM     18  C   UNL     1       1.158   4.522  -1.018  0.00  0.00    +0.000 C 
BRANCH  18  19
ATOM     19  C   UNL     1       0.407   5.041  -2.225  0.00  0.00    +0.000 C 
BRANCH  19  20
ATOM     20  C   UNL     1      -0.652   6.080  -1.871  0.00  0.00    +0.000 C 
BRANCH  20  21
ATOM     21  C   UNL     1      -0.082   7.356  -1.078  0.00  0.00    +0.000 A 
ATOM     22  C   UNL     1       0.780   7.304   0.034  0.00  0.00    +0.000 A 
ATOM     23  C   UNL     1       1.270   8.454   0.668  0.00  0.00    +0.000 A 
ATOM     24  C   UNL     1       0.954   9.710   0.183  0.00  0.00    +0.000 A 
ATOM     25  C   UNL     1       0.036   9.809  -0.839  0.00  0.00    +0.000 A 
ATOM     26  C   UNL     1      -0.562   8.652  -1.332  0.00  0.00    +0.000 A 
ENDBRANCH  20  21
BRANCH  20  27
ATOM     27  C   UNL     1      -1.317   6.459  -3.253  0.00  0.00    +0.000 A 
ATOM     28  C   UNL     1      -1.129   7.699  -3.898  0.00  0.00    +0.000 A 
ATOM     29  C   UNL     1      -2.022   8.174  -4.850  0.00  0.00    +0.000 A 
ATOM     30  C   UNL     1      -2.840   7.269  -5.492  0.00  0.00    +0.000 A 
ATOM     31  C   UNL     1      -2.835   5.938  -5.083  0.00  0.00    +0.000 A 
ATOM     32  C   UNL     1      -2.133   5.547  -3.936  0.00  0.00    +0.000 A 
ENDBRANCH  20  27
BRANCH  20  33
ATOM     33  C   UNL     1      -1.667   5.505  -0.896  0.00  0.00    +0.000 C 
ATOM     34  N   UNL     1      -2.509   5.029  -0.088  0.00  0.00    +0.000 NA
ENDBRANCH  20  33
ENDBRANCH  19  20
ENDBRANCH  18  19
ENDBRANCH   4  18
TORSDOF 8
