REMARK  Name = Piroxicam
REMARK  3 active torsions:
REMARK  status: ('A' for Active; 'I' for Inactive)
REMARK    1  A    between atoms: C_1  and  N_2
REMARK    2  A    between atoms: C_3  and  C_4
REMARK    3  A    between atoms: C_13  and  O_14
REMARK                            x       y       z     vdW  Elec       q    Type
REMARK                         _______ _______ _______ _____ _____    ______ ____
ROOT
ATOM      1  C   UNL     1       1.792  -0.667   1.976  0.00  0.00    +0.000 C 
ATOM      2  N   UNL     1       1.602  -0.875   0.521  0.00  0.00    +0.000 N 
ATOM      3  C   UNL     1       0.772  -2.008   0.102  0.00  0.00    +0.000 C 
ATOM      4  C   UNL     1      -0.539  -1.767  -0.142  0.00  0.00    +0.000 C 
ATOM      5  C   UNL     1      -1.158  -0.428  -0.023  0.00  0.00    +0.000 A 
ATOM      6  C   UNL     1      -0.406   0.744  -0.078  0.00  0.00    +0.000 A 
ATOM      7  C   UNL     1      -0.984   2.004   0.092  0.00  0.00    +0.000 A 
ATOM      8  C   UNL     1      -2.367   2.096   0.251  0.00  0.00    +0.000 A 
ATOM      9  C   UNL     1      -3.149   0.943   0.250  0.00  0.00    +0.000 A 
ATOM     10  C   UNL     1      -2.546  -0.306   0.129  0.00  0.00    +0.000 A 
ATOM     11  S   UNL     1       1.319   0.556  -0.359  0.00  0.00    +0.000 S 
ATOM     12  O   UNL     1       1.995   1.653   0.295  0.00  0.00    +0.000 OA
ATOM     13  O   UNL     1       1.488   0.289  -1.775  0.00  0.00    +0.000 OA
ENDROOT
BRANCH   3  14
ATOM     14  C   UNL     1       1.483  -3.350   0.050  0.00  0.00    +0.000 C 
ATOM     15  O   UNL     1       2.672  -3.401   0.369  0.00  0.00    +0.000 OA
ATOM     16  N   UNL     1       0.765  -4.456  -0.376  0.00  0.00    +0.000 N 
ATOM     17  C   UNL     1       1.321  -5.741  -0.435  0.00  0.00    +0.000 A 
ATOM     18  N   UNL     1       0.905  -6.494  -1.475  0.00  0.00    +0.000 NA
ATOM     19  C   UNL     1       1.487  -7.708  -1.618  0.00  0.00    +0.000 A 
ATOM     20  C   UNL     1       2.408  -8.231  -0.725  0.00  0.00    +0.000 A 
ATOM     21  C   UNL     1       2.749  -7.470   0.385  0.00  0.00    +0.000 A 
ATOM     22  C   UNL     1       2.203  -6.202   0.531  0.00  0.00    +0.000 A 
ATOM     23  H   UNL     1       0.030  -4.370  -1.060  0.00  0.00    +0.000 HD
ENDBRANCH   3  14
BRANCH   4  24
ATOM     24  O   UNL     1      -1.471  -2.717  -0.513  0.00  0.00    +0.000 OA
ATOM     25  H   UNL     1      -1.236  -3.590  -0.171  0.00  0.00    +0.000 HD
ENDBRANCH   4  24
TORSDOF 2
