REMARK  Name = Pitavastatin
REMARK  11 active torsions:
REMARK  status: ('A' for Active; 'I' for Inactive)
REMARK    1  A    between atoms: O_1  and  C_2
REMARK    2  A    between atoms: C_2  and  C_3
REMARK    3  A    between atoms: C_2  and  C_28
REMARK    4  A    between atoms: C_3  and  C_4
REMARK    5  A    between atoms: C_4  and  O_5
REMARK    6  A    between atoms: C_4  and  C_6
REMARK    7  A    between atoms: C_7  and  C_8
REMARK    8  A    between atoms: C_9  and  C_25
REMARK    9  A    between atoms: C_17  and  C_18
REMARK   10  A    between atoms: C_28  and  C_29
REMARK   11  A    between atoms: C_29  and  O_30
REMARK                            x       y       z     vdW  Elec       q    Type
REMARK                         _______ _______ _______ _____ _____    ______ ____
ROOT
ATOM      1  C   UNL     1      -3.289   1.217   2.401  0.00  0.00    +0.000 A 
ATOM      2  C   UNL     1      -3.999   0.042   2.016  0.00  0.00    +0.000 A 
ATOM      3  N   UNL     1      -5.353   0.039   1.969  0.00  0.00    +0.000 NA
ATOM      4  C   UNL     1      -6.034   1.164   2.287  0.00  0.00    +0.000 A 
ATOM      5  C   UNL     1      -7.424   1.135   2.252  0.00  0.00    +0.000 A 
ATOM      6  C   UNL     1      -8.209   2.253   2.561  0.00  0.00    +0.000 A 
ATOM      7  C   UNL     1      -7.603   3.454   2.883  0.00  0.00    +0.000 A 
ATOM      8  C   UNL     1      -6.218   3.516   2.923  0.00  0.00    +0.000 A 
ATOM      9  C   UNL     1      -5.412   2.373   2.686  0.00  0.00    +0.000 A 
ATOM     10  C   UNL     1      -4.003   2.392   2.822  0.00  0.00    +0.000 A 
ENDROOT
BRANCH  10  11
ATOM     11  C   UNL     1      -3.318   3.654   3.291  0.00  0.00    +0.000 A 
ATOM     12  C   UNL     1      -3.495   4.337   4.493  0.00  0.00    +0.000 A 
ATOM     13  C   UNL     1      -2.830   5.565   4.763  0.00  0.00    +0.000 A 
ATOM     14  C   UNL     1      -1.978   6.134   3.839  0.00  0.00    +0.000 A 
ATOM     15  F   UNL     1      -1.330   7.284   4.058  0.00  0.00    +0.000 F 
ATOM     16  C   UNL     1      -1.809   5.511   2.643  0.00  0.00    +0.000 A 
ATOM     17  C   UNL     1      -2.497   4.308   2.399  0.00  0.00    +0.000 A 
ENDBRANCH  10  11
BRANCH   2  18
ATOM     18  C   UNL     1      -3.197  -1.245   1.805  0.00  0.00    +0.000 C 
ATOM     19  C   UNL     1      -3.656  -2.655   1.865  0.00  0.00    +0.000 C 
ATOM     20  C   UNL     1      -3.212  -2.075   0.544  0.00  0.00    +0.000 C 
ENDBRANCH   2  18
BRANCH   1  22
ATOM     21  C   UNL     1      -1.034   0.614   1.451  0.00  0.00    +0.000 C 
ATOM     22  C   UNL     1      -1.796   1.160   2.427  0.00  0.00    +0.000 C 
BRANCH  21  23
ATOM     23  C   UNL     1       0.459   0.681   1.336  0.00  0.00    +0.000 C 
BRANCH  23  24
ATOM     24  O   UNL     1       0.849  -0.065   0.182  0.00  0.00    +0.000 OA
ATOM     25  H   UNL     1       0.615   0.445  -0.613  0.00  0.00    +0.000 HD
ENDBRANCH  23  24
BRANCH  23  26
ATOM     26  C   UNL     1       1.012   2.101   1.193  0.00  0.00    +0.000 C 
BRANCH  26  27
ATOM     27  C   UNL     1      -0.038   3.198   0.948  0.00  0.00    +0.000 C 
BRANCH  27  28
ATOM     28  O   UNL     1       0.702   4.412   0.940  0.00  0.00    +0.000 OA
ATOM     29  H   UNL     1       0.149   5.173   0.748  0.00  0.00    +0.000 HD
ENDBRANCH  27  28
BRANCH  27  30
ATOM     30  C   UNL     1      -0.900   3.007  -0.348  0.00  0.00    +0.000 C 
BRANCH  30  31
ATOM     31  C   UNL     1      -2.141   3.814  -0.782  0.00  0.00    +0.000 C 
ATOM     32  O   UNL     1      -2.995   3.379  -1.515  0.00  0.00    +0.000 OA
BRANCH  31  33
ATOM     33  O   UNL     1      -2.219   5.079  -0.337  0.00  0.00    +0.000 OA
ATOM     34  H   UNL     1      -1.615   5.211   0.391  0.00  0.00    +0.000 HD
ENDBRANCH  31  33
ENDBRANCH  30  31
ENDBRANCH  27  30
ENDBRANCH  26  27
ENDBRANCH  23  26
ENDBRANCH  21  23
ENDBRANCH   1  22
TORSDOF 11
