REMARK  Name = Pitolisant
REMARK  8 active torsions:
REMARK  status: ('A' for Active; 'I' for Inactive)
REMARK    1  A    between atoms: C_5  and  C_6
REMARK    2  A    between atoms: C_6  and  C_7
REMARK    3  A    between atoms: C_7  and  C_8
REMARK    4  A    between atoms: C_8  and  O_9
REMARK    5  A    between atoms: O_9  and  C_10
REMARK    6  A    between atoms: C_10  and  C_11
REMARK    7  A    between atoms: C_11  and  C_12
REMARK    8  A    between atoms: C_12  and  N_13
REMARK                            x       y       z     vdW  Elec       q    Type
REMARK                         _______ _______ _______ _____ _____    ______ ____
ROOT
ATOM      1  C   UNL     1       5.991   1.373   0.102  0.00  0.00    +0.000 C 
ENDROOT
BRANCH   1   2
ATOM      2  C   UNL     1       4.487   1.430   0.064  0.00  0.00    +0.000 C 
BRANCH   2   3
ATOM      3  C   UNL     1       3.883   0.033   0.049  0.00  0.00    +0.000 C 
BRANCH   3   8
ATOM      4 CL   UNL     1      -2.143  -0.068  -0.017  0.00  0.00    +0.000 Cl
ATOM      5  C   UNL     1      -0.424  -0.034  -0.018  0.00  0.00    +0.000 A 
ATOM      6  C   UNL     1       0.298  -1.229  -0.015  0.00  0.00    +0.000 A 
ATOM      7  C   UNL     1       1.696  -1.194   0.001  0.00  0.00    +0.000 A 
ATOM      8  C   UNL     1       2.373   0.029   0.013  0.00  0.00    +0.000 A 
ATOM      9  C   UNL     1       1.623   1.218  -0.002  0.00  0.00    +0.000 A 
ATOM     10  C   UNL     1       0.232   1.186  -0.016  0.00  0.00    +0.000 A 
ENDBRANCH   3   8
ENDBRANCH   2   3
ENDBRANCH   1   2
BRANCH   1  11
ATOM     11  O   UNL     1       6.455   2.713   0.106  0.00  0.00    +0.000 OA
BRANCH  11  12
ATOM     12  C   UNL     1       7.873   2.731   0.144  0.00  0.00    +0.000 C 
BRANCH  12  13
ATOM     13  C   UNL     1       8.298   4.175   0.149  0.00  0.00    +0.000 C 
BRANCH  13  14
ATOM     14  C   UNL     1       9.816   4.281   0.210  0.00  0.00    +0.000 C 
BRANCH  14  15
ATOM     15  N   UNL     1      10.361   5.645   0.165  0.00  0.00    +0.000 NA
ATOM     16  C   UNL     1      11.022   5.893  -1.120  0.00  0.00    +0.000 C 
ATOM     17  C   UNL     1      11.734   7.242  -1.104  0.00  0.00    +0.000 C 
ATOM     18  C   UNL     1      10.768   8.374  -0.776  0.00  0.00    +0.000 C 
ATOM     19  C   UNL     1      10.013   8.076   0.513  0.00  0.00    +0.000 C 
ATOM     20  C   UNL     1       9.375   6.695   0.461  0.00  0.00    +0.000 C 
ENDBRANCH  14  15
ENDBRANCH  13  14
ENDBRANCH  12  13
ENDBRANCH  11  12
ENDBRANCH   1  11
TORSDOF 8
