REMARK  Name = Pivampicillin
REMARK  15 active torsions:
REMARK  status: ('A' for Active; 'I' for Inactive)
REMARK    1  A    between atoms: C_4  and  C_5
REMARK    2  A    between atoms: C_4  and  C_6
REMARK    3  A    between atoms: C_7  and  C_23
REMARK    4  A    between atoms: C_11  and  N_12
REMARK    5  A    between atoms: C_13  and  C_15
REMARK    6  A    between atoms: C_15  and  N_16
REMARK    7  A    between atoms: C_15  and  C_17
REMARK    8  A    between atoms: C_23  and  O_25
REMARK    9  A    between atoms: O_25  and  C_26
REMARK   10  A    between atoms: C_26  and  O_27
REMARK   11  A    between atoms: O_27  and  C_28
REMARK   12  A    between atoms: C_28  and  C_30
REMARK   13  A    between atoms: C_30  and  C_31
REMARK   14  A    between atoms: C_30  and  C_32
REMARK   15  A    between atoms: C_30  and  C_33
REMARK                            x       y       z     vdW  Elec       q    Type
REMARK                         _______ _______ _______ _____ _____    ______ ____
ROOT
ATOM      1  C   UNL     1       3.025   1.310  -7.267  0.00  0.00    +0.000 C 
ATOM      2  S   UNL     1       4.264  -0.002  -7.015  0.00  0.00    +0.000 S 
ATOM      3  C   UNL     1       3.038  -1.298  -7.562  0.00  0.00    +0.000 C 
ATOM      4  C   UNL     1       3.519  -2.625  -6.972  0.00  0.00    +0.000 C 
ATOM      5  C   UNL     1       3.097  -1.337  -9.099  0.00  0.00    +0.000 C 
ATOM      6  C   UNL     1       1.672  -0.811  -6.982  0.00  0.00    +0.000 C 
ATOM      7  N   UNL     1       1.718   0.663  -7.011  0.00  0.00    +0.000 N 
ATOM      8  C   UNL     1       1.504   1.377  -5.852  0.00  0.00    +0.000 C 
ATOM      9  O   UNL     1       0.710   1.185  -4.965  0.00  0.00    +0.000 OA
ATOM     10  C   UNL     1       2.755   2.275  -6.106  0.00  0.00    +0.000 C 
ENDROOT
BRANCH  10  11
ATOM     11  N   UNL     1       3.773   2.361  -5.021  0.00  0.00    +0.000 N 
ATOM     12  C   UNL     1       3.521   3.186  -3.947  0.00  0.00    +0.000 C 
ATOM     13  O   UNL     1       2.460   3.812  -3.878  0.00  0.00    +0.000 OA
ATOM     14  H   UNL     1       4.593   1.764  -5.021  0.00  0.00    +0.000 HD
BRANCH  12  15
ATOM     15  C   UNL     1       4.645   3.306  -2.881  0.00  0.00    +0.000 C 
BRANCH  15  16
ATOM     16  C   UNL     1       5.249   4.703  -2.817  0.00  0.00    +0.000 A 
ATOM     17  C   UNL     1       6.557   4.890  -2.342  0.00  0.00    +0.000 A 
ATOM     18  C   UNL     1       7.052   6.179  -2.120  0.00  0.00    +0.000 A 
ATOM     19  C   UNL     1       6.285   7.296  -2.450  0.00  0.00    +0.000 A 
ATOM     20  C   UNL     1       5.003   7.129  -2.952  0.00  0.00    +0.000 A 
ATOM     21  C   UNL     1       4.488   5.848  -3.115  0.00  0.00    +0.000 A 
ENDBRANCH  15  16
BRANCH  15  22
ATOM     22  N   UNL     1       4.071   2.945  -1.570  0.00  0.00    +0.000 NA
ATOM     23  H   UNL     1       3.327   3.623  -1.378  0.00  0.00    +0.000 HD
ATOM     24  H   UNL     1       4.767   3.094  -0.844  0.00  0.00    +0.000 HD
ENDBRANCH  15  22
ENDBRANCH  12  15
ENDBRANCH  10  11
BRANCH   6  25
ATOM     25  C   UNL     1       0.430  -1.426  -7.691  0.00  0.00    +0.000 C 
ATOM     26  O   UNL     1       0.498  -2.298  -8.550  0.00  0.00    +0.000 OA
BRANCH  25  27
ATOM     27  O   UNL     1      -0.772  -0.985  -7.217  0.00  0.00    +0.000 OA
BRANCH  27  28
ATOM     28  C   UNL     1      -1.900  -1.571  -7.918  0.00  0.00    +0.000 C 
BRANCH  28  29
ATOM     29  O   UNL     1      -3.147  -1.160  -7.322  0.00  0.00    +0.000 OA
BRANCH  29  30
ATOM     30  C   UNL     1      -4.263  -1.626  -7.960  0.00  0.00    +0.000 C 
ATOM     31  O   UNL     1      -4.230  -2.338  -8.957  0.00  0.00    +0.000 OA
BRANCH  30  32
ATOM     32  C   UNL     1      -5.566  -1.151  -7.284  0.00  0.00    +0.000 C 
ATOM     33  C   UNL     1      -5.639  -1.658  -5.838  0.00  0.00    +0.000 C 
ATOM     34  C   UNL     1      -5.648   0.381  -7.294  0.00  0.00    +0.000 C 
ATOM     35  C   UNL     1      -6.784  -1.703  -8.050  0.00  0.00    +0.000 C 
ENDBRANCH  30  32
ENDBRANCH  29  30
ENDBRANCH  28  29
ENDBRANCH  27  28
ENDBRANCH  25  27
ENDBRANCH   6  25
TORSDOF 10
