REMARK  Name = Pivmecillinam
REMARK  12 active torsions:
REMARK  status: ('A' for Active; 'I' for Inactive)
REMARK    1  A    between atoms: N_3  and  C_4
REMARK    2  A    between atoms: C_8  and  C_9
REMARK    3  A    between atoms: C_9  and  O_11
REMARK    4  A    between atoms: O_11  and  C_12
REMARK    5  A    between atoms: C_12  and  O_13
REMARK    6  A    between atoms: O_13  and  C_14
REMARK    7  A    between atoms: C_14  and  C_16
REMARK    8  A    between atoms: C_16  and  C_17
REMARK    9  A    between atoms: C_16  and  C_18
REMARK   10  A    between atoms: C_16  and  C_19
REMARK   11  A    between atoms: C_20  and  C_21
REMARK   12  A    between atoms: C_20  and  C_22
REMARK                            x       y       z     vdW  Elec       q    Type
REMARK                         _______ _______ _______ _____ _____    ______ ____
ROOT
ATOM      1  C   UNL     1       2.044   0.261   2.258  0.00  0.00    +0.000 C 
ATOM      2  C   UNL     1       0.492   0.338   2.214  0.00  0.00    +0.000 C 
ATOM      3  O   UNL     1      -0.408  -0.290   1.710  0.00  0.00    +0.000 OA
ATOM      4  N   UNL     1       0.466   1.539   2.887  0.00  0.00    +0.000 N 
ATOM      5  C   UNL     1      -0.369   2.650   2.385  0.00  0.00    +0.000 C 
ATOM      6  C   UNL     1       0.583   3.875   2.215  0.00  0.00    +0.000 C 
ATOM      7  C   UNL     1       0.185   4.810   1.070  0.00  0.00    +0.000 C 
ATOM      8  C   UNL     1       0.821   4.675   3.506  0.00  0.00    +0.000 C 
ATOM      9  S   UNL     1       2.213   3.130   1.731  0.00  0.00    +0.000 S 
ATOM     10  C   UNL     1       1.946   1.697   2.823  0.00  0.00    +0.000 C 
ENDROOT
BRANCH   1  12
ATOM     11  C   UNL     1       2.244   0.076  -0.113  0.00  0.00    +0.000 C 
ATOM     12  N   UNL     1       2.842   0.094   1.029  0.00  0.00    +0.000 NA
ATOM     13  N   UNL     1       2.881  -0.089  -1.323  0.00  0.00    +0.000 N 
ATOM     14  C   UNL     1       4.015  -0.998  -1.441  0.00  0.00    +0.000 C 
ATOM     15  C   UNL     1       5.334  -0.293  -1.145  0.00  0.00    +0.000 C 
ATOM     16  C   UNL     1       5.837   0.598  -2.277  0.00  0.00    +0.000 C 
ATOM     17  C   UNL     1       4.835   1.656  -2.738  0.00  0.00    +0.000 C 
ATOM     18  C   UNL     1       3.610   1.058  -3.434  0.00  0.00    +0.000 C 
ATOM     19  C   UNL     1       2.465   0.684  -2.487  0.00  0.00    +0.000 C 
ENDBRANCH   1  12
BRANCH   5  20
ATOM     20  C   UNL     1      -1.632   2.952   3.246  0.00  0.00    +0.000 C 
ATOM     21  O   UNL     1      -1.923   4.068   3.663  0.00  0.00    +0.000 OA
BRANCH  20  22
ATOM     22  O   UNL     1      -2.464   1.883   3.425  0.00  0.00    +0.000 OA
BRANCH  22  23
ATOM     23  C   UNL     1      -3.621   2.205   4.240  0.00  0.00    +0.000 C 
BRANCH  23  24
ATOM     24  O   UNL     1      -4.522   1.081   4.325  0.00  0.00    +0.000 OA
BRANCH  24  25
ATOM     25  C   UNL     1      -5.612   1.288   5.124  0.00  0.00    +0.000 C 
ATOM     26  O   UNL     1      -5.826   2.335   5.725  0.00  0.00    +0.000 OA
BRANCH  25  27
ATOM     27  C   UNL     1      -6.537   0.055   5.185  0.00  0.00    +0.000 C 
ATOM     28  C   UNL     1      -7.071  -0.285   3.789  0.00  0.00    +0.000 C 
ATOM     29  C   UNL     1      -5.782  -1.153   5.755  0.00  0.00    +0.000 C 
ATOM     30  C   UNL     1      -7.740   0.346   6.104  0.00  0.00    +0.000 C 
ENDBRANCH  25  27
ENDBRANCH  24  25
ENDBRANCH  23  24
ENDBRANCH  22  23
ENDBRANCH  20  22
ENDBRANCH   5  20
TORSDOF 7
