REMARK  Name = Pixantrone
REMARK  8 active torsions:
REMARK  status: ('A' for Active; 'I' for Inactive)
REMARK    1  A    between atoms: N_1  and  C_2
REMARK    2  A    between atoms: C_2  and  C_3
REMARK    3  A    between atoms: C_3  and  N_4
REMARK    4  A    between atoms: N_4  and  C_5
REMARK    5  A    between atoms: C_8  and  N_9
REMARK    6  A    between atoms: N_9  and  C_10
REMARK    7  A    between atoms: C_10  and  C_11
REMARK    8  A    between atoms: C_11  and  N_12
REMARK                            x       y       z     vdW  Elec       q    Type
REMARK                         _______ _______ _______ _____ _____    ______ ____
ROOT
ATOM      1  C   UNL     1       5.135   1.127   2.496  0.00  0.00    +0.000 A 
ATOM      2  C   UNL     1       4.715   0.938   3.805  0.00  0.00    +0.000 A 
ATOM      3  C   UNL     1       5.446   1.441   4.878  0.00  0.00    +0.000 A 
ATOM      4  C   UNL     1       6.619   2.188   4.704  0.00  0.00    +0.000 A 
ATOM      5  C   UNL     1       7.032   2.443   3.378  0.00  0.00    +0.000 A 
ATOM      6  C   UNL     1       6.291   1.915   2.292  0.00  0.00    +0.000 A 
ATOM      7  C   UNL     1       6.714   2.211   0.908  0.00  0.00    +0.000 C 
ATOM      8  O   UNL     1       6.083   1.796  -0.066  0.00  0.00    +0.000 OA
ATOM      9  C   UNL     1       7.905   3.017   0.663  0.00  0.00    +0.000 A 
ATOM     10  C   UNL     1       8.658   3.506   1.715  0.00  0.00    +0.000 A 
ATOM     11  C   UNL     1       9.788   4.242   1.396  0.00  0.00    +0.000 A 
ATOM     12  N   UNL     1      10.177   4.501   0.120  0.00  0.00    +0.000 NA
ATOM     13  C   UNL     1       9.410   4.009  -0.877  0.00  0.00    +0.000 A 
ATOM     14  C   UNL     1       8.272   3.268  -0.657  0.00  0.00    +0.000 A 
ATOM     15  C   UNL     1       8.265   3.247   3.106  0.00  0.00    +0.000 C 
ATOM     16  O   UNL     1       8.969   3.700   4.007  0.00  0.00    +0.000 OA
ENDROOT
BRANCH   1  17
ATOM     17  N   UNL     1       4.455   0.464   1.460  0.00  0.00    +0.000 N 
ATOM     18  H   UNL     1       4.924   0.576   0.552  0.00  0.00    +0.000 HD
BRANCH  17  19
ATOM     19  C   UNL     1       2.998   0.609   1.388  0.00  0.00    +0.000 C 
BRANCH  19  20
ATOM     20  C   UNL     1       2.456  -0.050   0.106  0.00  0.00    +0.000 C 
BRANCH  20  21
ATOM     21  N   UNL     1       0.992  -0.059   0.080  0.00  0.00    +0.000 NA
ATOM     22  H   UNL     1       0.672  -0.493  -0.785  0.00  0.00    +0.000 HD
ATOM     23  H   UNL     1       0.644   0.899   0.069  0.00  0.00    +0.000 HD
ENDBRANCH  20  21
ENDBRANCH  19  20
ENDBRANCH  17  19
ENDBRANCH   1  17
BRANCH   4  24
ATOM     24  N   UNL     1       7.310   2.671   5.809  0.00  0.00    +0.000 N 
ATOM     25  H   UNL     1       8.188   3.168   5.631  0.00  0.00    +0.000 HD
BRANCH  24  26
ATOM     26  C   UNL     1       6.918   2.367   7.175  0.00  0.00    +0.000 C 
BRANCH  26  27
ATOM     27  C   UNL     1       7.867   2.988   8.206  0.00  0.00    +0.000 C 
BRANCH  27  28
ATOM     28  N   UNL     1       7.421   2.687   9.571  0.00  0.00    +0.000 NA
ATOM     29  H   UNL     1       6.497   3.092   9.723  0.00  0.00    +0.000 HD
ATOM     30  H   UNL     1       8.045   3.139  10.237  0.00  0.00    +0.000 HD
ENDBRANCH  27  28
ENDBRANCH  26  27
ENDBRANCH  24  26
ENDBRANCH   4  24
TORSDOF 8
