REMARK  Name = Pizotifen
REMARK  1 active torsions:
REMARK  status: ('A' for Active; 'I' for Inactive)
REMARK    1  A    between atoms: C_1  and  N_2
REMARK                            x       y       z     vdW  Elec       q    Type
REMARK                         _______ _______ _______ _____ _____    ______ ____
ROOT
ATOM      1  C   UNL     1       0.898   0.082   0.150  0.00  0.00    +0.000 C 
ATOM      2  N   UNL     1       2.362   0.078   0.086  0.00  0.00    +0.000 NA
ATOM      3  C   UNL     1       2.862  -1.262  -0.251  0.00  0.00    +0.000 C 
ATOM      4  C   UNL     1       2.451  -1.722  -1.649  0.00  0.00    +0.000 C 
ATOM      5  C   UNL     1       2.927  -0.745  -2.712  0.00  0.00    +0.000 C 
ATOM      6  C   UNL     1       2.490   0.681  -2.367  0.00  0.00    +0.000 C 
ATOM      7  C   UNL     1       2.857   1.041  -0.916  0.00  0.00    +0.000 C 
ATOM      8  C   UNL     1       3.695  -1.117  -3.779  0.00  0.00    +0.000 C 
ATOM      9  C   UNL     1       4.116  -2.491  -3.991  0.00  0.00    +0.000 A 
ATOM     10  C   UNL     1       5.413  -2.872  -4.310  0.00  0.00    +0.000 A 
ATOM     11  C   UNL     1       6.647  -2.052  -4.574  0.00  0.00    +0.000 C 
ATOM     12  C   UNL     1       6.564  -0.606  -4.092  0.00  0.00    +0.000 C 
ATOM     13  C   UNL     1       5.539   0.208  -4.849  0.00  0.00    +0.000 A 
ATOM     14  C   UNL     1       5.954   1.236  -5.705  0.00  0.00    +0.000 A 
ATOM     15  C   UNL     1       5.016   2.014  -6.384  0.00  0.00    +0.000 A 
ATOM     16  C   UNL     1       3.655   1.758  -6.241  0.00  0.00    +0.000 A 
ATOM     17  C   UNL     1       3.231   0.717  -5.421  0.00  0.00    +0.000 A 
ATOM     18  C   UNL     1       4.162  -0.047  -4.699  0.00  0.00    +0.000 A 
ATOM     19  S   UNL     1       5.565  -4.584  -4.400  0.00  0.00    +0.000 S 
ATOM     20  C   UNL     1       3.920  -4.820  -4.033  0.00  0.00    +0.000 A 
ATOM     21  C   UNL     1       3.249  -3.629  -3.912  0.00  0.00    +0.000 A 
ENDROOT
TORSDOF 0
