REMARK  Name = Plazomicin
REMARK  23 active torsions:
REMARK  status: ('A' for Active; 'I' for Inactive)
REMARK    1  A    between atoms: C_1  and  N_2
REMARK    2  A    between atoms: N_2  and  C_3
REMARK    3  A    between atoms: C_4  and  O_5
REMARK    4  A    between atoms: C_6  and  O_7
REMARK    5  A    between atoms: O_7  and  C_8
REMARK    6  A    between atoms: C_9  and  N_29
REMARK    7  A    between atoms: C_11  and  N_12
REMARK    8  A    between atoms: C_13  and  O_14
REMARK    9  A    between atoms: O_14  and  C_15
REMARK   10  A    between atoms: C_17  and  C_18
REMARK   11  A    between atoms: C_18  and  N_19
REMARK   12  A    between atoms: N_19  and  C_20
REMARK   13  A    between atoms: C_20  and  C_21
REMARK   14  A    between atoms: C_21  and  O_22
REMARK   15  A    between atoms: C_25  and  N_26
REMARK   16  A    between atoms: C_27  and  O_28
REMARK   17  A    between atoms: C_30  and  C_32
REMARK   18  A    between atoms: C_32  and  O_33
REMARK   19  A    between atoms: C_32  and  C_34
REMARK   20  A    between atoms: C_34  and  C_35
REMARK   21  A    between atoms: C_35  and  N_36
REMARK   22  A    between atoms: C_39  and  C_40
REMARK   23  A    between atoms: C_39  and  O_41
REMARK                            x       y       z     vdW  Elec       q    Type
REMARK                         _______ _______ _______ _____ _____    ______ ____
ROOT
ATOM      1  C   UNL     1      -0.576  -3.370  -1.305  0.00  0.00    +0.000 C 
ATOM      2  C   UNL     1      -0.041  -2.476  -2.502  0.00  0.00    +0.000 C 
ATOM      3  C   UNL     1       0.566  -1.263  -2.090  0.00  0.00    +0.000 C 
ATOM      4  C   UNL     1      -0.274  -0.636  -1.122  0.00  0.00    +0.000 C 
ATOM      5  C   UNL     1      -0.575  -1.299   0.187  0.00  0.00    +0.000 C 
ATOM      6  C   UNL     1      -1.365  -2.561  -0.201  0.00  0.00    +0.000 C 
ENDROOT
BRANCH   2   7
ATOM      7  N   UNL     1       1.144  -2.954  -3.279  0.00  0.00    +0.000 N 
ATOM      8  C   UNL     1       1.837  -2.281  -4.316  0.00  0.00    +0.000 C 
ATOM      9  O   UNL     1       1.974  -1.083  -4.381  0.00  0.00    +0.000 OA
ATOM     10  H   UNL     1       1.169  -3.935  -3.300  0.00  0.00    +0.000 HD
BRANCH   8  11
ATOM     11  C   UNL     1       2.462  -3.165  -5.448  0.00  0.00    +0.000 C 
BRANCH  11  12
ATOM     12  O   UNL     1       1.666  -3.509  -6.567  0.00  0.00    +0.000 OA
ATOM     13  H   UNL     1       1.019  -2.809  -6.736  0.00  0.00    +0.000 HD
ENDBRANCH  11  12
BRANCH  11  14
ATOM     14  C   UNL     1       3.660  -2.463  -6.005  0.00  0.00    +0.000 C 
BRANCH  14  15
ATOM     15  C   UNL     1       4.363  -3.420  -6.955  0.00  0.00    +0.000 C 
BRANCH  15  16
ATOM     16  N   UNL     1       5.437  -2.676  -7.578  0.00  0.00    +0.000 NA
ATOM     17  H   UNL     1       5.012  -1.877  -8.051  0.00  0.00    +0.000 HD
ATOM     18  H   UNL     1       5.848  -3.255  -8.304  0.00  0.00    +0.000 HD
ENDBRANCH  15  16
ENDBRANCH  14  15
ENDBRANCH  11  14
ENDBRANCH   8  11
ENDBRANCH   2   7
BRANCH   4  19
ATOM     19  N   UNL     1       0.766   0.326  -1.021  0.00  0.00    +0.000 NA
ATOM     20  H   UNL     1       1.616  -0.087  -0.611  0.00  0.00    +0.000 HD
ATOM     21  H   UNL     1       0.434   0.809  -0.250  0.00  0.00    +0.000 HD
ENDBRANCH   4  19
BRANCH   6  22
ATOM     22  O   UNL     1      -1.582  -3.380   0.961  0.00  0.00    +0.000 OA
ATOM     23  H   UNL     1      -0.741  -3.482   1.436  0.00  0.00    +0.000 HD
ENDBRANCH   6  22
BRANCH   5  24
ATOM     24  O   UNL     1      -1.338  -0.352   0.968  0.00  0.00    +0.000 OA
BRANCH  24  25
ATOM     25  C   UNL     1      -0.609   0.739   1.622  0.00  0.00    +0.000 C 
ATOM     26  O   UNL     1       0.468   0.189   2.401  0.00  0.00    +0.000 OA
ATOM     27  C   UNL     1       1.768   0.347   1.992  0.00  0.00    +0.000 C 
ATOM     28  C   UNL     1       2.152   1.365   1.200  0.00  0.00    +0.000 C 
ATOM     29  C   UNL     1       1.240   2.403   0.595  0.00  0.00    +0.000 C 
ATOM     30  C   UNL     1      -0.320   2.122   0.760  0.00  0.00    +0.000 C 
BRANCH  30  31
ATOM     31  N   UNL     1      -1.038   2.239  -0.568  0.00  0.00    +0.000 NA
ATOM     32  H   UNL     1      -0.973   1.379  -1.116  0.00  0.00    +0.000 HD
ATOM     33  H   UNL     1      -0.510   2.835  -1.213  0.00  0.00    +0.000 HD
ENDBRANCH  30  31
BRANCH  27  34
ATOM     34  C   UNL     1       2.718  -0.726   2.539  0.00  0.00    +0.000 C 
BRANCH  34  35
ATOM     35  N   UNL     1       4.108  -0.454   2.172  0.00  0.00    +0.000 NA
ATOM     36  H   UNL     1       4.317   0.502   2.457  0.00  0.00    +0.000 HD
BRANCH  35  37
ATOM     37  C   UNL     1       5.058  -1.339   2.835  0.00  0.00    +0.000 C 
BRANCH  37  38
ATOM     38  C   UNL     1       6.485  -0.935   2.444  0.00  0.00    +0.000 C 
BRANCH  38  39
ATOM     39  O   UNL     1       7.434  -1.763   3.103  0.00  0.00    +0.000 OA
ATOM     40  H   UNL     1       7.309  -1.643   4.060  0.00  0.00    +0.000 HD
ENDBRANCH  38  39
ENDBRANCH  37  38
ENDBRANCH  35  37
ENDBRANCH  34  35
ENDBRANCH  27  34
ENDBRANCH  24  25
ENDBRANCH   5  24
BRANCH   1  41
ATOM     41  O   UNL     1      -1.485  -4.403  -1.789  0.00  0.00    +0.000 OA
BRANCH  41  44
ATOM     42  C   UNL     1       0.279  -5.368  -4.889  0.00  0.00    +0.000 C 
ATOM     43  C   UNL     1      -0.744  -4.531  -4.112  0.00  0.00    +0.000 C 
ATOM     44  C   UNL     1      -0.875  -5.239  -2.762  0.00  0.00    +0.000 C 
ATOM     45  O   UNL     1      -1.560  -6.479  -3.040  0.00  0.00    +0.000 OA
ATOM     46  C   UNL     1      -0.812  -7.303  -3.983  0.00  0.00    +0.000 C 
ATOM     47  C   UNL     1      -0.505  -6.597  -5.317  0.00  0.00    +0.000 C 
ATOM     48  C   UNL     1      -1.777  -6.219  -6.095  0.00  0.00    +0.000 C 
BRANCH  42  50
ATOM     49  C   UNL     1       2.494  -5.324  -3.154  0.00  0.00    +0.000 C 
ATOM     50  N   UNL     1       1.666  -5.769  -4.302  0.00  0.00    +0.000 NA
ATOM     51  H   UNL     1       1.800  -6.772  -4.361  0.00  0.00    +0.000 HD
ENDBRANCH  42  50
BRANCH  47  52
ATOM     52  O   UNL     1       0.289  -7.393  -6.201  0.00  0.00    +0.000 OA
ATOM     53  H   UNL     1       1.230  -7.268  -5.996  0.00  0.00    +0.000 HD
ENDBRANCH  47  52
BRANCH  43  54
ATOM     54  O   UNL     1      -1.972  -4.034  -4.660  0.00  0.00    +0.000 OA
ATOM     55  H   UNL     1      -2.714  -4.365  -4.125  0.00  0.00    +0.000 HD
ENDBRANCH  43  54
ENDBRANCH  41  44
ENDBRANCH   1  41
TORSDOF 21
