REMARK  Name = Plerixafor
REMARK  4 active torsions:
REMARK  status: ('A' for Active; 'I' for Inactive)
REMARK    1  A    between atoms: C_1  and  N_2
REMARK    2  A    between atoms: C_1  and  C_16
REMARK    3  A    between atoms: C_19  and  C_20
REMARK    4  A    between atoms: C_20  and  N_21
REMARK                            x       y       z     vdW  Elec       q    Type
REMARK                         _______ _______ _______ _____ _____    ______ ____
ROOT
ATOM      1  C   UNL     1       2.398  -0.133   0.349  0.00  0.00    +0.000 A 
ATOM      2  C   UNL     1       3.094  -1.338   0.226  0.00  0.00    +0.000 A 
ATOM      3  C   UNL     1       4.511  -1.362   0.201  0.00  0.00    +0.000 A 
ATOM      4  C   UNL     1       5.215  -0.175   0.178  0.00  0.00    +0.000 A 
ATOM      5  C   UNL     1       4.470   0.982   0.245  0.00  0.00    +0.000 A 
ATOM      6  C   UNL     1       3.140   1.005   0.346  0.00  0.00    +0.000 A 
ENDROOT
BRANCH   1   7
ATOM      7  C   UNL     1       0.902   0.066   0.378  0.00  0.00    +0.000 C 
BRANCH   7   8
ATOM      8  N   UNL     1       0.484   1.422  -0.141  0.00  0.00    +0.000 NA
ATOM      9  C   UNL     1       1.073   1.574  -1.515  0.00  0.00    +0.000 C 
ATOM     10  C   UNL     1       0.648   0.513  -2.542  0.00  0.00    +0.000 C 
ATOM     11  C   UNL     1      -0.701   0.862  -3.107  0.00  0.00    +0.000 C 
ATOM     12  N   UNL     1      -1.742   0.750  -2.093  0.00  0.00    +0.000 NA
ATOM     13  C   UNL     1      -3.003   1.228  -2.653  0.00  0.00    +0.000 C 
ATOM     14  C   UNL     1      -4.001   1.754  -1.608  0.00  0.00    +0.000 C 
ATOM     15  N   UNL     1      -3.511   2.886  -0.822  0.00  0.00    +0.000 NA
ATOM     16  C   UNL     1      -3.388   4.129  -1.582  0.00  0.00    +0.000 C 
ATOM     17  C   UNL     1      -2.808   5.294  -0.762  0.00  0.00    +0.000 C 
ATOM     18  C   UNL     1      -1.286   5.260  -0.588  0.00  0.00    +0.000 C 
ATOM     19  N   UNL     1      -0.889   4.185   0.298  0.00  0.00    +0.000 NA
ATOM     20  C   UNL     1       0.542   3.984   0.351  0.00  0.00    +0.000 C 
ATOM     21  C   UNL     1       0.754   2.537   0.864  0.00  0.00    +0.000 C 
ATOM     22  H   UNL     1      -1.455   1.256  -1.251  0.00  0.00    +0.000 HD
ATOM     23  H   UNL     1      -2.633   2.596  -0.422  0.00  0.00    +0.000 HD
ATOM     24  H   UNL     1      -1.246   3.305  -0.042  0.00  0.00    +0.000 HD
ENDBRANCH   7   8
ENDBRANCH   1   7
BRANCH   4  25
ATOM     25  C   UNL     1       6.728  -0.035   0.114  0.00  0.00    +0.000 C 
BRANCH  25  26
ATOM     26  N   UNL     1       7.153   1.403   0.253  0.00  0.00    +0.000 NA
ATOM     27  C   UNL     1       6.651   1.824   1.614  0.00  0.00    +0.000 C 
ATOM     28  C   UNL     1       7.441   1.377   2.837  0.00  0.00    +0.000 C 
ATOM     29  C   UNL     1       8.452   2.422   3.190  0.00  0.00    +0.000 C 
ATOM     30  N   UNL     1       9.501   2.406   2.189  0.00  0.00    +0.000 NA
ATOM     31  C   UNL     1      10.454   3.469   2.470  0.00  0.00    +0.000 C 
ATOM     32  C   UNL     1      11.237   3.921   1.229  0.00  0.00    +0.000 C 
ATOM     33  N   UNL     1      10.401   4.460   0.155  0.00  0.00    +0.000 NA
ATOM     34  C   UNL     1       9.806   5.761   0.464  0.00  0.00    +0.000 C 
ATOM     35  C   UNL     1       8.883   6.297  -0.644  0.00  0.00    +0.000 C 
ATOM     36  C   UNL     1       7.484   5.682  -0.658  0.00  0.00    +0.000 C 
ATOM     37  N   UNL     1       7.551   4.307  -1.103  0.00  0.00    +0.000 NA
ATOM     38  C   UNL     1       6.298   3.612  -0.960  0.00  0.00    +0.000 C 
ATOM     39  C   UNL     1       6.643   2.105  -1.014  0.00  0.00    +0.000 C 
ATOM     40  H   UNL     1       9.090   2.458   1.255  0.00  0.00    +0.000 HD
ATOM     41  H   UNL     1       9.710   3.757  -0.045  0.00  0.00    +0.000 HD
ATOM     42  H   UNL     1       8.188   3.785  -0.523  0.00  0.00    +0.000 HD
ENDBRANCH  25  26
ENDBRANCH   4  25
TORSDOF 4
