REMARK  Name = Podofilox
REMARK  8 active torsions:
REMARK  status: ('A' for Active; 'I' for Inactive)
REMARK    1  A    between atoms: C_9  and  C_10
REMARK    2  A    between atoms: C_12  and  O_13
REMARK    3  A    between atoms: O_13  and  C_14
REMARK    4  A    between atoms: C_15  and  O_16
REMARK    5  A    between atoms: O_16  and  C_17
REMARK    6  A    between atoms: C_18  and  O_19
REMARK    7  A    between atoms: O_19  and  C_20
REMARK    8  A    between atoms: C_31  and  O_32
REMARK                            x       y       z     vdW  Elec       q    Type
REMARK                         _______ _______ _______ _____ _____    ______ ____
ROOT
ATOM      1  C   UNL     1       2.339  -0.014  -0.055  0.00  0.00    +0.000 C 
ATOM      2  C   UNL     1       2.799  -0.124  -1.475  0.00  0.00    +0.000 C 
ATOM      3  O   UNL     1       2.945  -1.539  -1.690  0.00  0.00    +0.000 OA
ATOM      4  C   UNL     1       2.812  -2.226  -0.508  0.00  0.00    +0.000 C 
ATOM      5  O   UNL     1       2.764  -3.446  -0.421  0.00  0.00    +0.000 OA
ATOM      6  C   UNL     1       2.855  -1.256   0.627  0.00  0.00    +0.000 C 
ATOM      7  C   UNL     1       2.048  -1.569   1.899  0.00  0.00    +0.000 C 
ATOM      8  C   UNL     1       2.009  -0.311   2.780  0.00  0.00    +0.000 A 
ATOM      9  C   UNL     1       1.672  -0.466   4.141  0.00  0.00    +0.000 A 
ATOM     10  C   UNL     1       1.542   0.667   4.910  0.00  0.00    +0.000 A 
ATOM     11  C   UNL     1       1.757   1.922   4.391  0.00  0.00    +0.000 A 
ATOM     12  O   UNL     1       1.542   2.902   5.313  0.00  0.00    +0.000 OA
ATOM     13  C   UNL     1       0.928   2.126   6.362  0.00  0.00    +0.000 C 
ATOM     14  O   UNL     1       1.165   0.711   6.218  0.00  0.00    +0.000 OA
ATOM     15  C   UNL     1       2.114   2.120   3.075  0.00  0.00    +0.000 A 
ATOM     16  C   UNL     1       2.227   0.999   2.234  0.00  0.00    +0.000 A 
ATOM     17  C   UNL     1       2.613   1.221   0.769  0.00  0.00    +0.000 C 
ENDROOT
BRANCH   7  18
ATOM     18  C   UNL     1       0.639  -2.075   1.610  0.00  0.00    +0.000 A 
ATOM     19  C   UNL     1       0.245  -3.372   1.928  0.00  0.00    +0.000 A 
ATOM     20  C   UNL     1      -1.030  -3.834   1.561  0.00  0.00    +0.000 A 
ATOM     21  C   UNL     1      -1.899  -3.008   0.802  0.00  0.00    +0.000 A 
ATOM     22  C   UNL     1      -1.501  -1.708   0.479  0.00  0.00    +0.000 A 
ATOM     23  C   UNL     1      -0.301  -1.249   0.983  0.00  0.00    +0.000 A 
BRANCH  20  24
ATOM     24  O   UNL     1      -1.286  -5.109   2.018  0.00  0.00    +0.000 OA
ATOM     25  C   UNL     1      -2.561  -5.655   1.704  0.00  0.00    +0.000 C 
ENDBRANCH  20  24
BRANCH  21  26
ATOM     26  O   UNL     1      -3.115  -3.533   0.460  0.00  0.00    +0.000 OA
ATOM     27  C   UNL     1      -4.044  -2.760  -0.273  0.00  0.00    +0.000 C 
ENDBRANCH  21  26
BRANCH  22  28
ATOM     28  O   UNL     1      -2.312  -0.921  -0.286  0.00  0.00    +0.000 OA
ATOM     29  C   UNL     1      -1.884   0.355  -0.728  0.00  0.00    +0.000 C 
ENDBRANCH  22  28
ENDBRANCH   7  18
BRANCH  17  30
ATOM     30  O   UNL     1       1.854   2.284   0.198  0.00  0.00    +0.000 OA
ATOM     31  H   UNL     1       0.926   2.171   0.473  0.00  0.00    +0.000 HD
ENDBRANCH  17  30
TORSDOF 5
