REMARK  Name = Polidocanol
REMARK  39 active torsions:
REMARK  status: ('A' for Active; 'I' for Inactive)
REMARK    1  A    between atoms: C_1  and  C_2
REMARK    2  A    between atoms: C_2  and  C_3
REMARK    3  A    between atoms: C_3  and  C_4
REMARK    4  A    between atoms: C_4  and  C_5
REMARK    5  A    between atoms: C_5  and  C_6
REMARK    6  A    between atoms: C_6  and  C_7
REMARK    7  A    between atoms: C_7  and  C_8
REMARK    8  A    between atoms: C_8  and  C_9
REMARK    9  A    between atoms: C_9  and  C_10
REMARK   10  A    between atoms: C_10  and  C_11
REMARK   11  A    between atoms: C_11  and  C_12
REMARK   12  A    between atoms: C_12  and  O_13
REMARK   13  A    between atoms: O_13  and  C_14
REMARK   14  A    between atoms: C_14  and  C_15
REMARK   15  A    between atoms: C_15  and  O_16
REMARK   16  A    between atoms: O_16  and  C_17
REMARK   17  A    between atoms: C_17  and  C_18
REMARK   18  A    between atoms: C_18  and  O_19
REMARK   19  A    between atoms: O_19  and  C_20
REMARK   20  A    between atoms: C_20  and  C_21
REMARK   21  A    between atoms: C_21  and  O_22
REMARK   22  A    between atoms: O_22  and  C_23
REMARK   23  A    between atoms: C_23  and  C_24
REMARK   24  A    between atoms: C_24  and  O_25
REMARK   25  A    between atoms: O_25  and  C_26
REMARK   26  A    between atoms: C_26  and  C_27
REMARK   27  A    between atoms: C_27  and  O_28
REMARK   28  A    between atoms: O_28  and  C_29
REMARK   29  A    between atoms: C_29  and  C_30
REMARK   30  A    between atoms: C_30  and  O_31
REMARK   31  A    between atoms: O_31  and  C_32
REMARK   32  A    between atoms: C_32  and  C_33
REMARK   33  A    between atoms: C_33  and  O_34
REMARK   34  A    between atoms: O_34  and  C_35
REMARK   35  A    between atoms: C_35  and  C_36
REMARK   36  A    between atoms: C_36  and  O_37
REMARK   37  A    between atoms: O_37  and  C_38
REMARK   38  A    between atoms: C_38  and  C_39
REMARK   39  A    between atoms: C_39  and  O_40
REMARK                            x       y       z     vdW  Elec       q    Type
REMARK                         _______ _______ _______ _____ _____    ______ ____
ROOT
ATOM      1  C   UNL     1      20.837  12.397  -6.470  0.00  0.00    +0.000 C 
ENDROOT
BRANCH   1   2
ATOM      2  O   UNL     1      22.260  12.411  -6.478  0.00  0.00    +0.000 OA
BRANCH   2   3
ATOM      3  C   UNL     1      22.749  13.599  -7.090  0.00  0.00    +0.000 C 
BRANCH   3   4
ATOM      4  C   UNL     1      24.266  13.567  -7.074  0.00  0.00    +0.000 C 
BRANCH   4   5
ATOM      5  O   UNL     1      24.755  14.755  -7.686  0.00  0.00    +0.000 OA
BRANCH   5   6
ATOM      6  C   UNL     1      26.178  14.769  -7.693  0.00  0.00    +0.000 C 
BRANCH   6   7
ATOM      7  C   UNL     1      26.650  16.051  -8.354  0.00  0.00    +0.000 C 
BRANCH   7   8
ATOM      8  O   UNL     1      28.073  16.065  -8.361  0.00  0.00    +0.000 OA
BRANCH   8   9
ATOM      9  C   UNL     1      28.562  17.253  -8.973  0.00  0.00    +0.000 C 
BRANCH   9  10
ATOM     10  C   UNL     1      30.080  17.222  -8.957  0.00  0.00    +0.000 C 
BRANCH  10  11
ATOM     11  O   UNL     1      30.570  18.410  -9.569  0.00  0.00    +0.000 OA
BRANCH  11  12
ATOM     12  C   UNL     1      31.993  18.424  -9.577  0.00  0.00    +0.000 C 
BRANCH  12  13
ATOM     13  C   UNL     1      32.466  19.706 -10.238  0.00  0.00    +0.000 C 
BRANCH  13  14
ATOM     14  O   UNL     1      33.890  19.723 -10.245  0.00  0.00    +0.000 OA
BRANCH  14  15
ATOM     15  C   UNL     1      34.377  20.912 -10.859  0.00  0.00    +0.000 C 
BRANCH  15  16
ATOM     16  C   UNL     1      35.896  20.885 -10.844  0.00  0.00    +0.000 C 
BRANCH  16  17
ATOM     17  O   UNL     1      36.393  22.077 -11.449  0.00  0.00    +0.000 OA
BRANCH  17  18
ATOM     18  C   UNL     1      37.816  22.080 -11.466  0.00  0.00    +0.000 C 
BRANCH  18  19
ATOM     19  C   UNL     1      38.319  23.360 -12.119  0.00  0.00    +0.000 C 
BRANCH  19  20
ATOM     20  O   UNL     1      39.742  23.388 -12.136  0.00  0.00    +0.000 OA
ATOM     21  H   UNL     1      40.044  23.358 -11.216  0.00  0.00    +0.000 HD
ENDBRANCH  19  20
ENDBRANCH  18  19
ENDBRANCH  17  18
ENDBRANCH  16  17
ENDBRANCH  15  16
ENDBRANCH  14  15
ENDBRANCH  13  14
ENDBRANCH  12  13
ENDBRANCH  11  12
ENDBRANCH  10  11
ENDBRANCH   9  10
ENDBRANCH   8   9
ENDBRANCH   7   8
ENDBRANCH   6   7
ENDBRANCH   5   6
ENDBRANCH   4   5
ENDBRANCH   3   4
ENDBRANCH   2   3
ENDBRANCH   1   2
BRANCH   1  22
ATOM     22  C   UNL     1      20.365  11.115  -5.810  0.00  0.00    +0.000 C 
BRANCH  22  23
ATOM     23  O   UNL     1      18.942  11.102  -5.803  0.00  0.00    +0.000 OA
BRANCH  23  24
ATOM     24  C   UNL     1      18.452   9.914  -5.191  0.00  0.00    +0.000 C 
BRANCH  24  25
ATOM     25  C   UNL     1      16.936   9.947  -5.208  0.00  0.00    +0.000 C 
BRANCH  25  26
ATOM     26  O   UNL     1      16.445   8.760  -4.596  0.00  0.00    +0.000 OA
BRANCH  26  27
ATOM     27  C   UNL     1      15.022   8.749  -4.590  0.00  0.00    +0.000 C 
BRANCH  27  28
ATOM     28  C   UNL     1      14.552   7.469  -3.930  0.00  0.00    +0.000 C 
BRANCH  28  29
ATOM     29  O   UNL     1      13.129   7.451  -3.921  0.00  0.00    +0.000 OA
BRANCH  29  30
ATOM     30  C   UNL     1      12.659   6.259  -3.307  0.00  0.00    +0.000 C 
BRANCH  30  31
ATOM     31  C   UNL     1      11.144   6.279  -3.317  0.00  0.00    +0.000 C 
BRANCH  31  32
ATOM     32  C   UNL     1      10.614   5.014  -2.665  0.00  0.00    +0.000 C 
BRANCH  32  33
ATOM     33  C   UNL     1       9.097   5.007  -2.662  0.00  0.00    +0.000 C 
BRANCH  33  34
ATOM     34  C   UNL     1       8.586   3.735  -2.006  0.00  0.00    +0.000 C 
BRANCH  34  35
ATOM     35  C   UNL     1       7.067   3.725  -2.001  0.00  0.00    +0.000 C 
BRANCH  35  36
ATOM     36  C   UNL     1       6.555   2.454  -1.346  0.00  0.00    +0.000 C 
BRANCH  36  37
ATOM     37  C   UNL     1       5.036   2.445  -1.341  0.00  0.00    +0.000 C 
BRANCH  37  38
ATOM     38  C   UNL     1       4.520   1.173  -0.685  0.00  0.00    +0.000 C 
BRANCH  38  39
ATOM     39  C   UNL     1       2.998   1.162  -0.680  0.00  0.00    +0.000 C 
BRANCH  39  41
ATOM     40  C   UNL     1       0.954  -0.116  -0.021  0.00  0.00    +0.000 C 
ATOM     41  C   UNL     1       2.471  -0.108  -0.025  0.00  0.00    +0.000 C 
ENDBRANCH  39  41
ENDBRANCH  38  39
ENDBRANCH  37  38
ENDBRANCH  36  37
ENDBRANCH  35  36
ENDBRANCH  34  35
ENDBRANCH  33  34
ENDBRANCH  32  33
ENDBRANCH  31  32
ENDBRANCH  30  31
ENDBRANCH  29  30
ENDBRANCH  28  29
ENDBRANCH  27  28
ENDBRANCH  26  27
ENDBRANCH  25  26
ENDBRANCH  24  25
ENDBRANCH  23  24
ENDBRANCH  22  23
ENDBRANCH   1  22
TORSDOF 38
