REMARK  Name = Polydatin
REMARK  11 active torsions:
REMARK  status: ('A' for Active; 'I' for Inactive)
REMARK    1  A    between atoms: O_1  and  C_2
REMARK    2  A    between atoms: C_2  and  C_3
REMARK    3  A    between atoms: C_5  and  O_6
REMARK    4  A    between atoms: O_6  and  C_7
REMARK    5  A    between atoms: C_9  and  C_10
REMARK    6  A    between atoms: C_11  and  C_12
REMARK    7  A    between atoms: C_15  and  O_16
REMARK    8  A    between atoms: C_20  and  O_21
REMARK    9  A    between atoms: C_23  and  O_24
REMARK   10  A    between atoms: C_25  and  O_26
REMARK   11  A    between atoms: C_27  and  O_28
REMARK                            x       y       z     vdW  Elec       q    Type
REMARK                         _______ _______ _______ _____ _____    ______ ____
ROOT
ATOM      1  C   UNL     1       6.204   0.202   3.075  0.00  0.00    +0.000 A 
ATOM      2  C   UNL     1       6.364  -1.170   2.867  0.00  0.00    +0.000 A 
ATOM      3  C   UNL     1       7.328  -1.916   3.545  0.00  0.00    +0.000 A 
ATOM      4  C   UNL     1       8.084  -1.277   4.525  0.00  0.00    +0.000 A 
ATOM      5  C   UNL     1       7.876   0.071   4.798  0.00  0.00    +0.000 A 
ATOM      6  C   UNL     1       6.957   0.820   4.070  0.00  0.00    +0.000 A 
ENDROOT
BRANCH   3   7
ATOM      7  C   UNL     1       7.490  -3.321   3.154  0.00  0.00    +0.000 C 
ATOM      8  C   UNL     1       8.339  -4.174   3.754  0.00  0.00    +0.000 C 
BRANCH   8   9
ATOM      9  C   UNL     1       8.509  -5.559   3.330  0.00  0.00    +0.000 A 
ATOM     10  C   UNL     1       8.625  -5.902   1.978  0.00  0.00    +0.000 A 
ATOM     11  C   UNL     1       8.870  -7.223   1.604  0.00  0.00    +0.000 A 
ATOM     12  C   UNL     1       9.006  -8.194   2.590  0.00  0.00    +0.000 A 
ATOM     13  C   UNL     1       8.890  -7.870   3.936  0.00  0.00    +0.000 A 
ATOM     14  C   UNL     1       8.646  -6.550   4.309  0.00  0.00    +0.000 A 
BRANCH  12  15
ATOM     15  O   UNL     1       9.268  -9.495   2.278  0.00  0.00    +0.000 OA
ATOM     16  H   UNL     1       9.361  -9.570   1.314  0.00  0.00    +0.000 HD
ENDBRANCH  12  15
ENDBRANCH   8   9
ENDBRANCH   3   7
BRANCH   5  17
ATOM     17  O   UNL     1       8.580   0.687   5.791  0.00  0.00    +0.000 OA
ATOM     18  H   UNL     1       9.151   0.025   6.216  0.00  0.00    +0.000 HD
ENDBRANCH   5  17
BRANCH   1  19
ATOM     19  O   UNL     1       5.363   1.009   2.355  0.00  0.00    +0.000 OA
BRANCH  19  22
ATOM     20  C   UNL     1       2.879  -1.179   0.764  0.00  0.00    +0.000 C 
ATOM     21  O   UNL     1       3.708  -0.585   1.766  0.00  0.00    +0.000 OA
ATOM     22  C   UNL     1       4.607   0.424   1.275  0.00  0.00    +0.000 C 
ATOM     23  C   UNL     1       5.529  -0.058   0.111  0.00  0.00    +0.000 C 
ATOM     24  C   UNL     1       4.715  -0.802  -0.950  0.00  0.00    +0.000 C 
ATOM     25  C   UNL     1       3.764  -1.824  -0.314  0.00  0.00    +0.000 C 
BRANCH  23  26
ATOM     26  O   UNL     1       6.285   1.012  -0.474  0.00  0.00    +0.000 OA
ATOM     27  H   UNL     1       5.678   1.656  -0.871  0.00  0.00    +0.000 HD
ENDBRANCH  23  26
BRANCH  24  28
ATOM     28  O   UNL     1       5.594  -1.472  -1.868  0.00  0.00    +0.000 OA
ATOM     29  H   UNL     1       6.180  -2.064  -1.363  0.00  0.00    +0.000 HD
ENDBRANCH  24  28
BRANCH  25  30
ATOM     30  O   UNL     1       2.963  -2.455  -1.316  0.00  0.00    +0.000 OA
ATOM     31  H   UNL     1       2.487  -1.767  -1.813  0.00  0.00    +0.000 HD
ENDBRANCH  25  30
BRANCH  20  32
ATOM     32  C   UNL     1       2.014  -2.304   1.380  0.00  0.00    +0.000 C 
BRANCH  32  33
ATOM     33  O   UNL     1       0.964  -1.836   2.219  0.00  0.00    +0.000 OA
ATOM     34  H   UNL     1       0.494  -2.639   2.516  0.00  0.00    +0.000 HD
ENDBRANCH  32  33
ENDBRANCH  20  32
ENDBRANCH  19  22
ENDBRANCH   1  19
TORSDOF 11
