REMARK  Name = Polythiazide
REMARK  7 active torsions:
REMARK  status: ('A' for Active; 'I' for Inactive)
REMARK    1  A    between atoms: C_1  and  N_2
REMARK    2  A    between atoms: C_3  and  C_4
REMARK    3  A    between atoms: C_4  and  S_5
REMARK    4  A    between atoms: S_5  and  C_6
REMARK    5  A    between atoms: C_6  and  C_7
REMARK    6  A    between atoms: C_16  and  S_22
REMARK    7  A    between atoms: S_22  and  N_23
REMARK                            x       y       z     vdW  Elec       q    Type
REMARK                         _______ _______ _______ _____ _____    ______ ____
ROOT
ATOM      1  C   UNL     1       0.863   0.015  -0.192  0.00  0.00    +0.000 C 
ATOM      2  N   UNL     1       2.333  -0.048  -0.052  0.00  0.00    +0.000 NA
ATOM      3  C   UNL     1       2.888  -1.139   0.791  0.00  0.00    +0.000 C 
ATOM      4  N   UNL     1       4.350  -1.144   0.585  0.00  0.00    +0.000 N 
ATOM      5  C   UNL     1       5.100   0.018   0.750  0.00  0.00    +0.000 A 
ATOM      6  C   UNL     1       6.487  -0.001   0.953  0.00  0.00    +0.000 A 
ATOM      7  C   UNL     1       7.245   1.193   1.130  0.00  0.00    +0.000 A 
ATOM      8 CL   UNL     1       8.932   0.975   1.402  0.00  0.00    +0.000 Cl
ATOM      9  C   UNL     1       6.616   2.436   1.093  0.00  0.00    +0.000 A 
ATOM     10  C   UNL     1       5.241   2.476   0.902  0.00  0.00    +0.000 A 
ATOM     11  C   UNL     1       4.530   1.284   0.750  0.00  0.00    +0.000 A 
ATOM     12  S   UNL     1       2.820   1.456   0.550  0.00  0.00    +0.000 S 
ATOM     13  O   UNL     1       2.600   2.436  -0.493  0.00  0.00    +0.000 OA
ATOM     14  O   UNL     1       2.256   1.620   1.872  0.00  0.00    +0.000 OA
ATOM     15  H   UNL     1       4.829  -2.034   0.493  0.00  0.00    +0.000 HD
ENDROOT
BRANCH   9  16
ATOM     16  S   UNL     1       7.398   4.010   1.318  0.00  0.00    +0.000 S 
ATOM     17  O   UNL     1       6.666   4.713   2.338  0.00  0.00    +0.000 OA
ATOM     18  O   UNL     1       8.838   3.877   1.342  0.00  0.00    +0.000 OA
BRANCH  16  19
ATOM     19  N   UNL     1       7.040   4.748  -0.135  0.00  0.00    +0.000 NA
ATOM     20  H   UNL     1       6.138   5.207  -0.229  0.00  0.00    +0.000 HD
ATOM     21  H   UNL     1       7.587   4.476  -0.944  0.00  0.00    +0.000 HD
ENDBRANCH  16  19
ENDBRANCH   9  16
BRANCH   3  22
ATOM     22  C   UNL     1       2.245  -2.545   0.480  0.00  0.00    +0.000 C 
BRANCH  22  23
ATOM     23  S   UNL     1       0.549  -2.636   1.226  0.00  0.00    +0.000 S 
BRANCH  23  24
ATOM     24  C   UNL     1      -0.319  -3.951   0.295  0.00  0.00    +0.000 C 
BRANCH  24  25
ATOM     25  C   UNL     1      -1.838  -3.791   0.447  0.00  0.00    +0.000 C 
ATOM     26  F   UNL     1      -2.200  -3.544   1.726  0.00  0.00    +0.000 F 
ATOM     27  F   UNL     1      -2.312  -2.781  -0.320  0.00  0.00    +0.000 F 
ATOM     28  F   UNL     1      -2.479  -4.920   0.065  0.00  0.00    +0.000 F 
ENDBRANCH  24  25
ENDBRANCH  23  24
ENDBRANCH  22  23
ENDBRANCH   3  22
TORSDOF 6
