REMARK  Name = Pomalidomide
REMARK  2 active torsions:
REMARK  status: ('A' for Active; 'I' for Inactive)
REMARK    1  A    between atoms: N_1  and  C_2
REMARK    2  A    between atoms: N_10  and  C_11
REMARK                            x       y       z     vdW  Elec       q    Type
REMARK                         _______ _______ _______ _____ _____    ______ ____
ROOT
ATOM      1  C   UNL     1       2.324  -0.074   0.055  0.00  0.00    +0.000 A 
ATOM      2  C   UNL     1       3.039   1.155   0.055  0.00  0.00    +0.000 A 
ATOM      3  C   UNL     1       4.444   1.205   0.044  0.00  0.00    +0.000 A 
ATOM      4  C   UNL     1       5.167   0.023   0.049  0.00  0.00    +0.000 A 
ATOM      5  C   UNL     1       4.451  -1.165   0.078  0.00  0.00    +0.000 A 
ATOM      6  C   UNL     1       3.073  -1.256   0.091  0.00  0.00    +0.000 A 
ATOM      7  C   UNL     1       2.756  -2.734   0.104  0.00  0.00    +0.000 C 
ATOM      8  O   UNL     1       1.631  -3.183   0.095  0.00  0.00    +0.000 OA
ATOM      9  N   UNL     1       3.962  -3.410   0.064  0.00  0.00    +0.000 N 
ATOM     10  C   UNL     1       4.991  -2.501   0.066  0.00  0.00    +0.000 C 
ATOM     11  O   UNL     1       6.197  -2.722   0.029  0.00  0.00    +0.000 OA
ENDROOT
BRANCH   9  12
ATOM     12  C   UNL     1       4.361  -4.851  -0.059  0.00  0.00    +0.000 C 
ATOM     13  C   UNL     1       5.178  -5.361   1.165  0.00  0.00    +0.000 C 
ATOM     14  C   UNL     1       6.310  -6.290   0.722  0.00  0.00    +0.000 C 
ATOM     15  C   UNL     1       5.760  -7.476  -0.019  0.00  0.00    +0.000 C 
ATOM     16  O   UNL     1       6.318  -8.570  -0.019  0.00  0.00    +0.000 OA
ATOM     17  N   UNL     1       4.616  -7.241  -0.753  0.00  0.00    +0.000 N 
ATOM     18  C   UNL     1       3.840  -6.078  -0.868  0.00  0.00    +0.000 C 
ATOM     19  O   UNL     1       2.938  -6.039  -1.699  0.00  0.00    +0.000 OA
ATOM     20  H   UNL     1       4.347  -8.019  -1.343  0.00  0.00    +0.000 HD
ENDBRANCH   9  12
BRANCH   1  21
ATOM     21  N   UNL     1       0.942  -0.023   0.161  0.00  0.00    +0.000 N 
ATOM     22  H   UNL     1       0.454   0.855   0.017  0.00  0.00    +0.000 HD
ATOM     23  H   UNL     1       0.409  -0.877   0.021  0.00  0.00    +0.000 HD
ENDBRANCH   1  21
TORSDOF 2
