REMARK  Name = Ponatinib
REMARK  9 active torsions:
REMARK  status: ('A' for Active; 'I' for Inactive)
REMARK    1  A    between atoms: C_1  and  N_2
REMARK    2  A    between atoms: N_5  and  C_6
REMARK    3  A    between atoms: C_6  and  C_7
REMARK    4  A    between atoms: C_10  and  N_11
REMARK    5  A    between atoms: C_12  and  C_14
REMARK    6  A    between atoms: C_16  and  C_17
REMARK    7  A    between atoms: C_18  and  C_19
REMARK    8  A    between atoms: C_28  and  C_29
REMARK    9  A    between atoms: C_33  and  C_34
REMARK                            x       y       z     vdW  Elec       q    Type
REMARK                         _______ _______ _______ _____ _____    ______ ____
ROOT
ATOM      1  N   UNL     1      -4.565  -5.035   3.327  0.00  0.00    +0.000 N 
ATOM      2  C   UNL     1      -3.969  -6.267   3.003  0.00  0.00    +0.000 C 
ATOM      3  O   UNL     1      -2.925  -6.482   2.392  0.00  0.00    +0.000 OA
ATOM      4  H   UNL     1      -5.451  -5.009   3.806  0.00  0.00    +0.000 HD
ENDROOT
BRANCH   2   5
ATOM      5  C   UNL     1      -4.670  -7.496   3.367  0.00  0.00    +0.000 A 
ATOM      6  C   UNL     1      -3.911  -8.628   3.751  0.00  0.00    +0.000 A 
ATOM      7  C   UNL     1      -4.513  -9.888   3.834  0.00  0.00    +0.000 A 
ATOM      8  C   UNL     1      -5.908  -9.959   3.663  0.00  0.00    +0.000 A 
ATOM      9  C   UNL     1      -6.674 -11.218   3.955  0.00  0.00    +0.000 C 
ATOM     10  C   UNL     1      -6.642  -8.822   3.253  0.00  0.00    +0.000 A 
ATOM     11  C   UNL     1      -6.024  -7.592   3.085  0.00  0.00    +0.000 A 
BRANCH   7  12
ATOM     12  C   UNL     1      -3.727 -11.092   4.002  0.00  0.00    +0.000 C 
ATOM     13  C   UNL     1      -3.138 -12.162   4.079  0.00  0.00    +0.000 C 
BRANCH  13  14
ATOM     14  C   UNL     1      -2.397 -13.383   4.184  0.00  0.00    +0.000 A 
ATOM     15  C   UNL     1      -1.038 -13.493   4.414  0.00  0.00    +0.000 A 
ATOM     16  N   UNL     1      -0.625 -14.801   4.487  0.00  0.00    +0.000 NA
ATOM     17  C   UNL     1      -1.715 -15.511   4.296  0.00  0.00    +0.000 A 
ATOM     18  C   UNL     1      -1.896 -16.916   4.268  0.00  0.00    +0.000 A 
ATOM     19  C   UNL     1      -3.117 -17.416   4.053  0.00  0.00    +0.000 A 
ATOM     20  C   UNL     1      -4.214 -16.438   3.854  0.00  0.00    +0.000 A 
ATOM     21  N   UNL     1      -4.118 -15.143   3.872  0.00  0.00    +0.000 NA
ATOM     22  N   UNL     1      -2.835 -14.700   4.099  0.00  0.00    +0.000 N 
ENDBRANCH  13  14
ENDBRANCH   7  12
ENDBRANCH   2   5
BRANCH   1  26
ATOM     23  C   UNL     1      -2.860  -1.360   1.995  0.00  0.00    +0.000 A 
ATOM     24  C   UNL     1      -4.077  -1.335   2.680  0.00  0.00    +0.000 A 
ATOM     25  C   UNL     1      -4.614  -2.539   3.215  0.00  0.00    +0.000 A 
ATOM     26  C   UNL     1      -4.024  -3.790   2.956  0.00  0.00    +0.000 A 
ATOM     27  C   UNL     1      -2.840  -3.806   2.298  0.00  0.00    +0.000 A 
ATOM     28  C   UNL     1      -2.251  -2.648   1.908  0.00  0.00    +0.000 A 
BRANCH  28  29
ATOM     29  C   UNL     1      -0.879  -2.911   1.462  0.00  0.00    +0.000 C 
ATOM     30  F   UNL     1      -0.038  -3.745   2.117  0.00  0.00    +0.000 F 
ATOM     31  F   UNL     1      -0.796  -3.302   0.165  0.00  0.00    +0.000 F 
ATOM     32  F   UNL     1      -0.349  -1.737   1.742  0.00  0.00    +0.000 F 
ENDBRANCH  28  29
BRANCH  23  33
ATOM     33  C   UNL     1      -2.158  -0.040   1.534  0.00  0.00    +0.000 C 
BRANCH  33  38
ATOM     34  C   UNL     1       2.538   0.117  -0.036  0.00  0.00    +0.000 C 
ATOM     35  N   UNL     1       1.161   0.228  -0.551  0.00  0.00    +0.000 NA
ATOM     36  C   UNL     1       0.421   1.306   0.166  0.00  0.00    +0.000 C 
ATOM     37  C   UNL     1      -1.094   1.366  -0.204  0.00  0.00    +0.000 C 
ATOM     38  N   UNL     1      -1.871   0.140   0.076  0.00  0.00    +0.000 NA
ATOM     39  C   UNL     1      -1.088  -0.933  -0.563  0.00  0.00    +0.000 C 
ATOM     40  C   UNL     1       0.472  -1.002  -0.192  0.00  0.00    +0.000 C 
ENDBRANCH  33  38
ENDBRANCH  23  33
ENDBRANCH   1  26
TORSDOF 7
