REMARK  Name = Ponesimod
REMARK  12 active torsions:
REMARK  status: ('A' for Active; 'I' for Inactive)
REMARK    1  A    between atoms: C_1  and  C_2
REMARK    2  A    between atoms: C_2  and  C_3
REMARK    3  A    between atoms: C_3  and  N_4
REMARK    4  A    between atoms: C_8  and  C_9
REMARK    5  A    between atoms: C_12  and  O_13
REMARK    6  A    between atoms: O_13  and  C_14
REMARK    7  A    between atoms: C_14  and  C_15
REMARK    8  A    between atoms: C_15  and  O_16
REMARK    9  A    between atoms: C_15  and  C_17
REMARK   10  A    between atoms: C_17  and  O_18
REMARK   11  A    between atoms: N_24  and  C_25
REMARK   12  A    between atoms: C_30  and  C_31
REMARK                            x       y       z     vdW  Elec       q    Type
REMARK                         _______ _______ _______ _____ _____    ______ ____
ROOT
ATOM      1  N   UNL     1      -0.494 -12.136  -6.573  0.00  0.00    +0.000 NA
ATOM      2  C   UNL     1      -0.403 -12.863  -5.520  0.00  0.00    +0.000 C 
ATOM      3  S   UNL     1      -0.137 -12.308  -3.897  0.00  0.00    +0.000 S 
ATOM      4  C   UNL     1      -0.315 -13.848  -3.201  0.00  0.00    +0.000 C 
ATOM      5  C   UNL     1      -0.263 -14.095  -1.887  0.00  0.00    +0.000 C 
ATOM      6  C   UNL     1      -0.438 -14.873  -4.276  0.00  0.00    +0.000 C 
ATOM      7  O   UNL     1      -0.398 -16.067  -4.044  0.00  0.00    +0.000 OA
ATOM      8  N   UNL     1      -0.528 -14.235  -5.514  0.00  0.00    +0.000 N 
ENDROOT
BRANCH   5   9
ATOM      9  C   UNL     1      -0.182 -13.042  -0.863  0.00  0.00    +0.000 A 
ATOM     10  C   UNL     1      -1.213 -12.120  -0.656  0.00  0.00    +0.000 A 
ATOM     11  C   UNL     1      -1.083 -11.124   0.320  0.00  0.00    +0.000 A 
ATOM     12  C   UNL     1       0.080 -11.022   1.105  0.00  0.00    +0.000 A 
ATOM     13  C   UNL     1       1.122 -11.937   0.871  0.00  0.00    +0.000 A 
ATOM     14 CL   UNL     1       2.666 -11.979   1.658  0.00  0.00    +0.000 Cl
ATOM     15  C   UNL     1       0.975 -12.938  -0.097  0.00  0.00    +0.000 A 
BRANCH  12  16
ATOM     16  O   UNL     1       0.001 -10.002   2.017  0.00  0.00    +0.000 OA
BRANCH  16  17
ATOM     17  C   UNL     1       1.120  -9.777   2.871  0.00  0.00    +0.000 C 
BRANCH  17  18
ATOM     18  C   UNL     1       0.788  -8.685   3.891  0.00  0.00    +0.000 C 
BRANCH  18  19
ATOM     19  O   UNL     1       1.861  -7.742   3.988  0.00  0.00    +0.000 OA
ATOM     20  H   UNL     1       2.670  -8.224   4.234  0.00  0.00    +0.000 HD
ENDBRANCH  18  19
BRANCH  18  21
ATOM     21  C   UNL     1       0.530  -9.302   5.272  0.00  0.00    +0.000 C 
BRANCH  21  22
ATOM     22  O   UNL     1      -0.511 -10.269   5.246  0.00  0.00    +0.000 OA
ATOM     23  H   UNL     1      -1.297  -9.849   4.856  0.00  0.00    +0.000 HD
ENDBRANCH  21  22
ENDBRANCH  18  21
ENDBRANCH  17  18
ENDBRANCH  16  17
ENDBRANCH  12  16
ENDBRANCH   5   9
BRANCH   8  24
ATOM     24  C   UNL     1      -0.654 -14.990  -6.706  0.00  0.00    +0.000 A 
ATOM     25  C   UNL     1      -1.759 -15.848  -6.830  0.00  0.00    +0.000 A 
ATOM     26  C   UNL     1      -1.940 -16.610  -7.983  0.00  0.00    +0.000 A 
ATOM     27  C   UNL     1      -1.011 -16.535  -9.014  0.00  0.00    +0.000 A 
ATOM     28  C   UNL     1       0.098 -15.696  -8.898  0.00  0.00    +0.000 A 
ATOM     29  C   UNL     1       0.295 -14.911  -7.750  0.00  0.00    +0.000 A 
ATOM     30  C   UNL     1       1.557 -14.096  -7.652  0.00  0.00    +0.000 C 
ENDBRANCH   8  24
BRANCH   1  31
ATOM     31  C   UNL     1      -0.248 -10.695  -6.587  0.00  0.00    +0.000 C 
BRANCH  31  33
ATOM     32  C   UNL     1      -0.979  -8.463  -5.645  0.00  0.00    +0.000 C 
ATOM     33  C   UNL     1      -1.169  -9.954  -5.633  0.00  0.00    +0.000 C 
ENDBRANCH  31  33
ENDBRANCH   1  31
TORSDOF 10
