REMARK  Name = Potassium acetate
REMARK  1 active torsions:
REMARK  status: ('A' for Active; 'I' for Inactive)
REMARK    1  A    between atoms: C_2  and  C_3
REMARK                            x       y       z     vdW  Elec       q    Type
REMARK                         _______ _______ _______ _____ _____    ______ ____
ROOT
ATOM      1  K   UNL     1       1.627   2.473  -0.483  0.00  0.00    +0.000 K 
ENDROOT
TORSDOF 0
REMARK  Name = Potassium acetate
REMARK  1 active torsions:
REMARK  status: ('A' for Active; 'I' for Inactive)
REMARK    1  A    between atoms: C_2  and  C_3
REMARK                            x       y       z     vdW  Elec       q    Type
REMARK                         _______ _______ _______ _____ _____    ______ ____
ROOT
ATOM      1  C   UNL     2       0.912  -0.486   0.142  0.00  0.00    +0.000 C 
ATOM      2  C   UNL     2       2.432  -0.380   0.135  0.00  0.00    +0.000 C 
ATOM      3  O   UNL     2       3.046  -1.033   0.997  0.00  0.00    +0.000 OA
ATOM      4  O   UNL     2       2.848   0.517  -0.672  0.00  0.00    +0.000 OA
ENDROOT
TORSDOF 0
