REMARK  Name = Potassium nitrate
REMARK  0 active torsions:
REMARK  status: ('A' for Active; 'I' for Inactive)
REMARK                            x       y       z     vdW  Elec       q    Type
REMARK                         _______ _______ _______ _____ _____    ______ ____
ROOT
ATOM      1  K   UNL     1       0.306   0.516  -1.388  0.00  0.00    +0.000 K 
ENDROOT
TORSDOF 0
REMARK  Name = Potassium nitrate
REMARK  0 active torsions:
REMARK  status: ('A' for Active; 'I' for Inactive)
REMARK                            x       y       z     vdW  Elec       q    Type
REMARK                         _______ _______ _______ _____ _____    ______ ____
ROOT
ATOM      1  O   UNL     1       1.382  -0.244   0.771  0.00  0.00    +0.000 OA
ATOM      2  N   UNL     1       2.554  -0.208   0.351  0.00  0.00    +0.000 N 
ATOM      3  O   UNL     1       2.806   0.623  -0.540  0.00  0.00    +0.000 OA
ATOM      4  O   UNL     1       3.384  -1.041   0.708  0.00  0.00    +0.000 OA
ENDROOT
TORSDOF 0
