REMARK  Name = Potassium gluconate
REMARK  10 active torsions:
REMARK  status: ('A' for Active; 'I' for Inactive)
REMARK    1  A    between atoms: C_3  and  O_4
REMARK    2  A    between atoms: C_3  and  C_5
REMARK    3  A    between atoms: C_3  and  C_7
REMARK    4  A    between atoms: C_5  and  O_6
REMARK    5  A    between atoms: C_7  and  O_9
REMARK    6  A    between atoms: C_7  and  C_10
REMARK    7  A    between atoms: C_10  and  O_12
REMARK    8  A    between atoms: C_10  and  C_13
REMARK    9  A    between atoms: C_13  and  O_15
REMARK   10  A    between atoms: C_13  and  C_16
REMARK                            x       y       z     vdW  Elec       q    Type
REMARK                         _______ _______ _______ _____ _____    ______ ____
ROOT
ATOM      1  K   UNL     1       1.182   0.308  -0.064  0.00  0.00    +0.000 K 
ENDROOT
TORSDOF 0
REMARK  Name = Potassium gluconate
REMARK  10 active torsions:
REMARK  status: ('A' for Active; 'I' for Inactive)
REMARK    1  A    between atoms: C_3  and  O_4
REMARK    2  A    between atoms: C_3  and  C_5
REMARK    3  A    between atoms: C_3  and  C_7
REMARK    4  A    between atoms: C_5  and  O_6
REMARK    5  A    between atoms: C_7  and  O_9
REMARK    6  A    between atoms: C_7  and  C_10
REMARK    7  A    between atoms: C_10  and  O_12
REMARK    8  A    between atoms: C_10  and  C_13
REMARK    9  A    between atoms: C_13  and  O_15
REMARK   10  A    between atoms: C_13  and  C_16
REMARK                            x       y       z     vdW  Elec       q    Type
REMARK                         _______ _______ _______ _____ _____    ______ ____
ROOT
ATOM      1  C   UNL     2       4.482  -1.451  -0.334  0.00  0.00    +0.000 C 
ENDROOT
BRANCH   1   2
ATOM      2  O   UNL     2       4.463  -0.293  -1.205  0.00  0.00    +0.000 OA
ATOM      3  H   UNL     2       5.130  -0.489  -1.893  0.00  0.00    +0.000 HD
ENDBRANCH   1   2
BRANCH   1   4
ATOM      4  C   UNL     2       3.478  -2.426  -0.986  0.00  0.00    +0.000 C 
BRANCH   4   5
ATOM      5  O   UNL     2       2.152  -1.809  -1.072  0.00  0.00    +0.000 OA
ATOM      6  H   UNL     2       1.654  -2.480  -1.582  0.00  0.00    +0.000 HD
ENDBRANCH   4   5
BRANCH   4   7
ATOM      7  C   UNL     2       3.274  -3.728  -0.240  0.00  0.00    +0.000 C 
BRANCH   7   8
ATOM      8  O   UNL     2       2.335  -4.527  -0.959  0.00  0.00    +0.000 OA
ATOM      9  H   UNL     2       1.470  -4.344  -0.553  0.00  0.00    +0.000 HD
ENDBRANCH   7   8
ENDBRANCH   4   7
ENDBRANCH   1   4
BRANCH   1  10
ATOM     10  C   UNL     2       4.087  -1.070   1.133  0.00  0.00    +0.000 C 
BRANCH  10  11
ATOM     11  O   UNL     2       4.150   0.345   1.402  0.00  0.00    +0.000 OA
ATOM     12  H   UNL     2       4.480   0.455   2.314  0.00  0.00    +0.000 HD
ENDBRANCH  10  11
BRANCH  10  13
ATOM     13  C   UNL     2       4.712  -1.950   2.245  0.00  0.00    +0.000 C 
BRANCH  13  14
ATOM     14  C   UNL     2       6.268  -2.014   2.237  0.00  0.00    +0.000 C 
ATOM     15  O   UNL     2       6.838  -1.237   1.409  0.00  0.00    +0.000 OA
ATOM     16  O   UNL     2       6.776  -2.801   3.070  0.00  0.00    +0.000 OA
ENDBRANCH  13  14
BRANCH  13  17
ATOM     17  O   UNL     2       4.187  -3.293   2.199  0.00  0.00    +0.000 OA
ATOM     18  H   UNL     2       3.335  -3.319   2.657  0.00  0.00    +0.000 HD
ENDBRANCH  13  17
ENDBRANCH  10  13
ENDBRANCH   1  10
TORSDOF 10
