REMARK  Name = Potassium lactate
REMARK  3 active torsions:
REMARK  status: ('A' for Active; 'I' for Inactive)
REMARK    1  A    between atoms: C_2  and  C_3
REMARK    2  A    between atoms: C_3  and  O_4
REMARK    3  A    between atoms: C_3  and  C_5
REMARK                            x       y       z     vdW  Elec       q    Type
REMARK                         _______ _______ _______ _____ _____    ______ ____
ROOT
ATOM      1  K   UNL     1       0.827   2.309   1.252  0.00  0.00    +0.000 K 
ENDROOT
TORSDOF 0
REMARK  Name = Potassium lactate
REMARK  3 active torsions:
REMARK  status: ('A' for Active; 'I' for Inactive)
REMARK    1  A    between atoms: C_2  and  C_3
REMARK    2  A    between atoms: C_3  and  O_4
REMARK    3  A    between atoms: C_3  and  C_5
REMARK                            x       y       z     vdW  Elec       q    Type
REMARK                         _______ _______ _______ _____ _____    ______ ____
ROOT
ATOM      1  C   UNL     2       0.903  -0.329  -0.315  0.00  0.00    +0.000 C 
ATOM      2  C   UNL     2       2.410  -0.235  -0.152  0.00  0.00    +0.000 C 
ENDROOT
BRANCH   2   3
ATOM      3  C   UNL     2       2.979  -1.534   0.504  0.00  0.00    +0.000 C 
ATOM      4  O   UNL     2       2.124  -2.324   0.976  0.00  0.00    +0.000 OA
ATOM      5  O   UNL     2       4.238  -1.513   0.631  0.00  0.00    +0.000 OA
ENDBRANCH   2   3
BRANCH   2   6
ATOM      6  O   UNL     2       2.696   0.899   0.725  0.00  0.00    +0.000 OA
ATOM      7  H   UNL     2       3.298   0.494   1.399  0.00  0.00    +0.000 HD
ENDBRANCH   2   6
TORSDOF 2
