REMARK  Name = Potassium bicarbonate
REMARK  1 active torsions:
REMARK  status: ('A' for Active; 'I' for Inactive)
REMARK    1  A    between atoms: O_2  and  C_3
REMARK                            x       y       z     vdW  Elec       q    Type
REMARK                         _______ _______ _______ _____ _____    ______ ____
ROOT
ATOM      1  K   UNL     1       0.954  -0.035   1.858  0.00  0.00    +0.000 K 
ENDROOT
TORSDOF 0
REMARK  Name = Potassium bicarbonate
REMARK  1 active torsions:
REMARK  status: ('A' for Active; 'I' for Inactive)
REMARK    1  A    between atoms: O_2  and  C_3
REMARK                            x       y       z     vdW  Elec       q    Type
REMARK                         _______ _______ _______ _____ _____    ______ ____
ROOT
ATOM      1  C   UNL     2       2.458  -0.023  -0.415  0.00  0.00    +0.000 C 
ATOM      2  O   UNL     2       2.850   1.142  -0.561  0.00  0.00    +0.000 OA
ATOM      3  O   UNL     2       2.862  -0.941   0.346  0.00  0.00    +0.000 OA
ENDROOT
BRANCH   1   4
ATOM      4  O   UNL     2       1.186  -0.142  -0.775  0.00  0.00    +0.000 OA
ATOM      5  H   UNL     2       1.127   0.763  -1.153  0.00  0.00    +0.000 HD
ENDBRANCH   1   4
TORSDOF 1
