REMARK  Name = Potassium chloride
REMARK  0 active torsions:
REMARK  status: ('A' for Active; 'I' for Inactive)
REMARK                            x       y       z     vdW  Elec       q    Type
REMARK                         _______ _______ _______ _____ _____    ______ ____
ROOT
ATOM      1 CL   UNL     1      -0.206  -0.694  -0.182  0.00  0.00    +0.000 Cl
ENDROOT
TORSDOF 0
REMARK  Name = Potassium chloride
REMARK  0 active torsions:
REMARK  status: ('A' for Active; 'I' for Inactive)
REMARK                            x       y       z     vdW  Elec       q    Type
REMARK                         _______ _______ _______ _____ _____    ______ ____
ROOT
ATOM      1  K   UNL     1       2.236   0.659   0.082  0.00  0.00    +0.000 K 
ENDROOT
TORSDOF 0
