REMARK  Name = Potassium aspartate
REMARK  8 active torsions:
REMARK  status: ('A' for Active; 'I' for Inactive)
REMARK    1  A    between atoms: N_6  and  CA_7
REMARK    2  A    between atoms: CA_7  and  CB_8
REMARK    3  A    between atoms: CA_7  and  C_12
REMARK    4  A    between atoms: CB_8  and  CG_9
REMARK    5  A    between atoms: N_15  and  CA_16
REMARK    6  A    between atoms: CA_16  and  CB_17
REMARK    7  A    between atoms: CA_16  and  C_21
REMARK    8  A    between atoms: CB_17  and  CG_18
REMARK                            x       y       z     vdW  Elec       q    Type
REMARK                         _______ _______ _______ _____ _____    ______ ____
ROOT
ATOM      1  H   UNK     1       0.908  -0.009   0.039  0.00  0.00    +0.000 HD
ENDROOT
TORSDOF 0
REMARK  Name = Potassium aspartate
REMARK  8 active torsions:
REMARK  status: ('A' for Active; 'I' for Inactive)
REMARK    1  A    between atoms: N_6  and  CA_7
REMARK    2  A    between atoms: CA_7  and  CB_8
REMARK    3  A    between atoms: CA_7  and  C_12
REMARK    4  A    between atoms: CB_8  and  CG_9
REMARK    5  A    between atoms: N_15  and  CA_16
REMARK    6  A    between atoms: CA_16  and  CB_17
REMARK    7  A    between atoms: CA_16  and  C_21
REMARK    8  A    between atoms: CB_17  and  CG_18
REMARK                            x       y       z     vdW  Elec       q    Type
REMARK                         _______ _______ _______ _____ _____    ______ ____
ROOT
ATOM      1  H   UNK     2       1.035  -0.076   0.055  0.00  0.00    +0.000 HD
ENDROOT
TORSDOF 0
REMARK  Name = Potassium aspartate
REMARK  8 active torsions:
REMARK  status: ('A' for Active; 'I' for Inactive)
REMARK    1  A    between atoms: N_6  and  CA_7
REMARK    2  A    between atoms: CA_7  and  CB_8
REMARK    3  A    between atoms: CA_7  and  C_12
REMARK    4  A    between atoms: CB_8  and  CG_9
REMARK    5  A    between atoms: N_15  and  CA_16
REMARK    6  A    between atoms: CA_16  and  CB_17
REMARK    7  A    between atoms: CA_16  and  C_21
REMARK    8  A    between atoms: CB_17  and  CG_18
REMARK                            x       y       z     vdW  Elec       q    Type
REMARK                         _______ _______ _______ _____ _____    ______ ____
ROOT
ATOM      1  O   HOH     3       1.034  -0.081   0.047  0.00  0.00    +0.000 OA
ATOM      2  H   HOH     0       2.004  -0.081   0.047  0.00  0.00    +0.000 HD
ATOM      3  H   HOH     0       0.711   0.825  -0.079  0.00  0.00    +0.000 HD
ENDROOT
TORSDOF 0
REMARK  Name = Potassium aspartate
REMARK  8 active torsions:
REMARK  status: ('A' for Active; 'I' for Inactive)
REMARK    1  A    between atoms: N_6  and  CA_7
REMARK    2  A    between atoms: CA_7  and  CB_8
REMARK    3  A    between atoms: CA_7  and  C_12
REMARK    4  A    between atoms: CB_8  and  CG_9
REMARK    5  A    between atoms: N_15  and  CA_16
REMARK    6  A    between atoms: CA_16  and  CB_17
REMARK    7  A    between atoms: CA_16  and  C_21
REMARK    8  A    between atoms: CB_17  and  CG_18
REMARK                            x       y       z     vdW  Elec       q    Type
REMARK                         _______ _______ _______ _____ _____    ______ ____
ROOT
ATOM      1  K   UNL     4       0.927   0.005   0.068  0.00  0.00    +0.000 K 
ENDROOT
TORSDOF 0
REMARK  Name = Potassium aspartate
REMARK  8 active torsions:
REMARK  status: ('A' for Active; 'I' for Inactive)
REMARK    1  A    between atoms: N_6  and  CA_7
REMARK    2  A    between atoms: CA_7  and  CB_8
REMARK    3  A    between atoms: CA_7  and  C_12
REMARK    4  A    between atoms: CB_8  and  CG_9
REMARK    5  A    between atoms: N_15  and  CA_16
REMARK    6  A    between atoms: CA_16  and  CB_17
REMARK    7  A    between atoms: CA_16  and  C_21
REMARK    8  A    between atoms: CB_17  and  CG_18
REMARK                            x       y       z     vdW  Elec       q    Type
REMARK                         _______ _______ _______ _____ _____    ______ ____
ROOT
ATOM      1  K   UNL     5       0.975   0.068   0.069  0.00  0.00    +0.000 K 
ENDROOT
TORSDOF 0
REMARK  Name = Potassium aspartate
REMARK  8 active torsions:
REMARK  status: ('A' for Active; 'I' for Inactive)
REMARK    1  A    between atoms: N_6  and  CA_7
REMARK    2  A    between atoms: CA_7  and  CB_8
REMARK    3  A    between atoms: CA_7  and  C_12
REMARK    4  A    between atoms: CB_8  and  CG_9
REMARK    5  A    between atoms: N_15  and  CA_16
REMARK    6  A    between atoms: CA_16  and  CB_17
REMARK    7  A    between atoms: CA_16  and  C_21
REMARK    8  A    between atoms: CB_17  and  CG_18
REMARK                            x       y       z     vdW  Elec       q    Type
REMARK                         _______ _______ _______ _____ _____    ______ ____
ROOT
ATOM      1  CA  ASP A   1       2.418   0.034  -0.078  0.00  0.00    +0.000 C 
ENDROOT
BRANCH   1   2
ATOM      2  N   ASP A   1       0.948   0.034  -0.078  0.00  0.00    +0.000 NA
ATOM      3  H1  ASP A   1       0.608   0.013  -1.040  0.00  0.00    +0.000 HD
ATOM      4  H2  ASP A   1       0.608   0.878   0.384  0.00  0.00    +0.000 HD
ENDBRANCH   1   2
BRANCH   1   5
ATOM      5  C   ASP A   1       2.925   0.066   1.354  0.00  0.00    +0.000 C 
ATOM      6  O   ASP A   1       2.002   0.090   2.433  0.00  0.00    +0.000 OA
ATOM      7  OXT ASP A   1       4.175   0.072   1.587  0.00  0.00    +0.000 OA
ENDBRANCH   1   5
BRANCH   1   8
ATOM      8  CB  ASP A   1       2.925   1.259  -0.822  0.00  0.00    +0.000 C 
BRANCH   8   9
ATOM      9  CG  ASP A   1       2.418   1.227  -2.255  0.00  0.00    +0.000 C 
ATOM     10  OD1 ASP A   1       1.602   0.152  -2.696  0.00  0.00    +0.000 OA
ATOM     11  OD2 ASP A   1       2.725   2.163  -3.059  0.00  0.00    +0.000 OA
ENDBRANCH   8   9
ENDBRANCH   1   8
TORSDOF 4
REMARK  Name = Potassium aspartate
REMARK  8 active torsions:
REMARK  status: ('A' for Active; 'I' for Inactive)
REMARK    1  A    between atoms: N_6  and  CA_7
REMARK    2  A    between atoms: CA_7  and  CB_8
REMARK    3  A    between atoms: CA_7  and  C_12
REMARK    4  A    between atoms: CB_8  and  CG_9
REMARK    5  A    between atoms: N_15  and  CA_16
REMARK    6  A    between atoms: CA_16  and  CB_17
REMARK    7  A    between atoms: CA_16  and  C_21
REMARK    8  A    between atoms: CB_17  and  CG_18
REMARK                            x       y       z     vdW  Elec       q    Type
REMARK                         _______ _______ _______ _____ _____    ______ ____
ROOT
ATOM      1  CA  ASP B   1       2.379  -0.004  -0.042  0.00  0.00    +0.000 C 
ENDROOT
BRANCH   1   2
ATOM      2  N   ASP B   1       0.909  -0.004  -0.042  0.00  0.00    +0.000 NA
ATOM      3  H1  ASP B   1       0.569  -0.633   0.686  0.00  0.00    +0.000 HD
ATOM      4  H2  ASP B   1       0.569  -0.320  -0.950  0.00  0.00    +0.000 HD
ENDBRANCH   1   2
BRANCH   1   5
ATOM      5  C   ASP B   1       2.886   0.933  -1.126  0.00  0.00    +0.000 C 
ATOM      6  O   ASP B   1       1.963   1.638  -1.943  0.00  0.00    +0.000 OA
ATOM      7  OXT ASP B   1       4.135   1.084  -1.302  0.00  0.00    +0.000 OA
ENDBRANCH   1   5
BRANCH   1   8
ATOM      8  CB  ASP B   1       2.886  -1.412  -0.311  0.00  0.00    +0.000 C 
BRANCH   8   9
ATOM      9  CG  ASP B   1       2.379  -2.348   0.774  0.00  0.00    +0.000 C 
ATOM     10  OD1 ASP B   1       1.563  -1.846   1.822  0.00  0.00    +0.000 OA
ATOM     11  OD2 ASP B   1       2.686  -3.581   0.743  0.00  0.00    +0.000 OA
ENDBRANCH   8   9
ENDBRANCH   1   8
TORSDOF 4
