REMARK  Name = Potassium sulfate
REMARK  0 active torsions:
REMARK  status: ('A' for Active; 'I' for Inactive)
REMARK                            x       y       z     vdW  Elec       q    Type
REMARK                         _______ _______ _______ _____ _____    ______ ____
ROOT
ATOM      1  K   UNL     1       1.587  -2.002   0.743  0.00  0.00    +0.000 K 
ENDROOT
TORSDOF 0
REMARK  Name = Potassium sulfate
REMARK  0 active torsions:
REMARK  status: ('A' for Active; 'I' for Inactive)
REMARK                            x       y       z     vdW  Elec       q    Type
REMARK                         _______ _______ _______ _____ _____    ______ ____
ROOT
ATOM      1  K   UNL     1      -0.289   1.264   0.470  0.00  0.00    +0.000 K 
ENDROOT
TORSDOF 0
REMARK  Name = Potassium sulfate
REMARK  0 active torsions:
REMARK  status: ('A' for Active; 'I' for Inactive)
REMARK                            x       y       z     vdW  Elec       q    Type
REMARK                         _______ _______ _______ _____ _____    ______ ____
ROOT
ATOM      1  O   UNL     1       1.467   0.366  -0.622  0.00  0.00    +0.000 OA
ATOM      2  S   UNL     1       2.908   0.316  -0.280  0.00  0.00    +0.000 S 
ATOM      3  O   UNL     1       3.581   1.537  -0.644  0.00  0.00    +0.000 OA
ATOM      4  O   UNL     1       2.886   0.084   1.177  0.00  0.00    +0.000 OA
ATOM      5  O   UNL     1       3.432  -0.903  -0.908  0.00  0.00    +0.000 OA
ENDROOT
TORSDOF 0
