REMARK  Name = Potassium perchlorate
REMARK  0 active torsions:
REMARK  status: ('A' for Active; 'I' for Inactive)
REMARK                            x       y       z     vdW  Elec       q    Type
REMARK                         _______ _______ _______ _____ _____    ______ ____
ROOT
ATOM      1  K   UNL     1       0.524   0.341   1.698  0.00  0.00    +0.000 K 
ENDROOT
TORSDOF 0
REMARK  Name = Potassium perchlorate
REMARK  0 active torsions:
REMARK  status: ('A' for Active; 'I' for Inactive)
REMARK                            x       y       z     vdW  Elec       q    Type
REMARK                         _______ _______ _______ _____ _____    ______ ____
ROOT
ATOM      1  O   UNL     1       1.319  -0.115  -0.689  0.00  0.00    +0.000 OA
ATOM      2 CL   UNL     1       2.750  -0.066  -0.444  0.00  0.00    +0.000 Cl
ATOM      3  O   UNL     1       3.214   1.277  -0.711  0.00  0.00    +0.000 OA
ATOM      4  O   UNL     1       2.916  -0.337   0.975  0.00  0.00    +0.000 OA
ATOM      5  O   UNL     1       3.432  -1.057  -1.234  0.00  0.00    +0.000 OA
ENDROOT
TORSDOF 0
