REMARK  Name = Potassium hydroxide
REMARK  0 active torsions:
REMARK  status: ('A' for Active; 'I' for Inactive)
REMARK                            x       y       z     vdW  Elec       q    Type
REMARK                         _______ _______ _______ _____ _____    ______ ____
ROOT
ATOM      1  O   HOH     1       0.809  -0.629  -0.116  0.00  0.00    +0.000 OA
ATOM      2  H   HOH     0       1.664  -1.015  -0.223  0.00  0.00    +0.000 HD
ENDROOT
TORSDOF 0
REMARK  Name = Potassium hydroxide
REMARK  0 active torsions:
REMARK  status: ('A' for Active; 'I' for Inactive)
REMARK                            x       y       z     vdW  Elec       q    Type
REMARK                         _______ _______ _______ _____ _____    ______ ____
ROOT
ATOM      1  K   UNL     1       1.453   1.523   0.483  0.00  0.00    +0.000 K 
ENDROOT
TORSDOF 0
