REMARK  Name = Potassium carbonate
REMARK  0 active torsions:
REMARK  status: ('A' for Active; 'I' for Inactive)
REMARK                            x       y       z     vdW  Elec       q    Type
REMARK                         _______ _______ _______ _____ _____    ______ ____
ROOT
ATOM      1  K   UNL     1       1.103  -0.072  -2.171  0.00  0.00    +0.000 K 
ENDROOT
TORSDOF 0
REMARK  Name = Potassium carbonate
REMARK  0 active torsions:
REMARK  status: ('A' for Active; 'I' for Inactive)
REMARK                            x       y       z     vdW  Elec       q    Type
REMARK                         _______ _______ _______ _____ _____    ______ ____
ROOT
ATOM      1  K   UNL     1       0.668   1.590   1.170  0.00  0.00    +0.000 K 
ENDROOT
TORSDOF 0
REMARK  Name = Potassium carbonate
REMARK  0 active torsions:
REMARK  status: ('A' for Active; 'I' for Inactive)
REMARK                            x       y       z     vdW  Elec       q    Type
REMARK                         _______ _______ _______ _____ _____    ______ ____
ROOT
ATOM      1  O   UNL     1       1.322  -0.761   0.358  0.00  0.00    +0.000 OA
ATOM      2  C   UNL     1       2.472  -0.307   0.331  0.00  0.00    +0.000 C 
ATOM      3  O   UNL     1       2.996  -0.645  -0.728  0.00  0.00    +0.000 OA
ATOM      4  O   UNL     1       2.848   0.611   1.031  0.00  0.00    +0.000 OA
ENDROOT
TORSDOF 0
