REMARK  Name = Pralidoxime
REMARK  3 active torsions:
REMARK  status: ('A' for Active; 'I' for Inactive)
REMARK    1  A    between atoms: C_1  and  N_2
REMARK    2  A    between atoms: C_3  and  C_4
REMARK    3  A    between atoms: N_5  and  O_6
REMARK                            x       y       z     vdW  Elec       q    Type
REMARK                         _______ _______ _______ _____ _____    ______ ____
ROOT
ATOM      1  C   UNL     1      -2.454   0.129   0.137  0.00  0.00    +0.000 C 
ATOM      2  N   UNL     1      -0.994  -0.026  -0.037  0.00  0.00    +0.000 N 
ATOM      3  C   UNL     1      -0.332  -1.218  -0.084  0.00  0.00    +0.000 A 
ATOM      4  C   UNL     1       1.072  -1.235  -0.001  0.00  0.00    +0.000 A 
ATOM      5  C   UNL     1       1.781  -0.039   0.069  0.00  0.00    +0.000 A 
ATOM      6  C   UNL     1       1.091   1.158  -0.000  0.00  0.00    +0.000 A 
ATOM      7  C   UNL     1      -0.293   1.138  -0.059  0.00  0.00    +0.000 A 
ENDROOT
BRANCH   3   8
ATOM      8  C   UNL     1      -1.035  -2.512  -0.241  0.00  0.00    +0.000 C 
ATOM      9  N   UNL     1      -2.312  -2.571  -0.461  0.00  0.00    +0.000 NA
BRANCH   9  10
ATOM     10  O   UNL     1      -2.747  -3.892  -0.486  0.00  0.00    +0.000 OA
ATOM     11  H   UNL     1      -3.721  -3.800  -0.547  0.00  0.00    +0.000 HD
ENDBRANCH   9  10
ENDBRANCH   3   8
TORSDOF 2
