REMARK  Name = Pralsetinib
REMARK  11 active torsions:
REMARK  status: ('A' for Active; 'I' for Inactive)
REMARK    1  A    between atoms: C_1  and  O_2
REMARK    2  A    between atoms: O_2  and  C_3
REMARK    3  A    between atoms: C_3  and  C_23
REMARK    4  A    between atoms: C_6  and  C_9
REMARK    5  A    between atoms: C_11  and  N_12
REMARK    6  A    between atoms: C_16  and  C_17
REMARK    7  A    between atoms: C_20  and  C_21
REMARK    8  A    between atoms: N_25  and  C_26
REMARK    9  A    between atoms: C_26  and  C_27
REMARK   10  A    between atoms: C_26  and  C_28
REMARK   11  A    between atoms: C_31  and  N_34
REMARK                            x       y       z     vdW  Elec       q    Type
REMARK                         _______ _______ _______ _____ _____    ______ ____
ROOT
ATOM      1  C   UNL     1       2.732   0.955   0.875  0.00  0.00    +0.000 C 
ATOM      2  C   UNL     1       2.620   2.330   0.179  0.00  0.00    +0.000 C 
ATOM      3  C   UNL     1       2.937   3.512   1.085  0.00  0.00    +0.000 C 
ATOM      4  C   UNL     1       2.121   3.472   2.377  0.00  0.00    +0.000 C 
ATOM      5  C   UNL     1       2.304   2.143   3.105  0.00  0.00    +0.000 C 
ATOM      6  C   UNL     1       1.949   0.967   2.204  0.00  0.00    +0.000 C 
ENDROOT
BRANCH   4   7
ATOM      7  C   UNL     1       2.534   4.615   3.267  0.00  0.00    +0.000 A 
ATOM      8  N   UNL     1       3.805   4.625   3.728  0.00  0.00    +0.000 NA
ATOM      9  C   UNL     1       4.178   5.672   4.472  0.00  0.00    +0.000 A 
ATOM     10  C   UNL     1       3.290   6.697   4.741  0.00  0.00    +0.000 A 
ATOM     11  C   UNL     1       2.010   6.603   4.248  0.00  0.00    +0.000 A 
ATOM     12  C   UNL     1       1.016   7.683   4.536  0.00  0.00    +0.000 C 
ATOM     13  N   UNL     1       1.609   5.560   3.509  0.00  0.00    +0.000 NA
BRANCH   9  14
ATOM     14  N   UNL     1       5.490   5.691   4.988  0.00  0.00    +0.000 N 
ATOM     15  C   UNL     1       6.047   6.736   5.632  0.00  0.00    +0.000 A 
ATOM     16  N   UNL     1       6.991   7.550   5.160  0.00  0.00    +0.000 NA
ATOM     17  N   UNL     1       7.053   8.540   6.070  0.00  0.00    +0.000 N 
ATOM     18  C   UNL     1       6.231   8.351   7.147  0.00  0.00    +0.000 A 
ATOM     19  C   UNL     1       6.117   9.309   8.265  0.00  0.00    +0.000 C 
ATOM     20  C   UNL     1       5.600   7.154   6.909  0.00  0.00    +0.000 A 
ATOM     21  H   UNL     1       6.071   5.045   4.467  0.00  0.00    +0.000 HD
ATOM     22  H   UNL     1       7.668   9.326   5.886  0.00  0.00    +0.000 HD
ENDBRANCH   9  14
ENDBRANCH   4   7
BRANCH   1  23
ATOM     23  C   UNL     1       2.170  -0.088  -0.148  0.00  0.00    +0.000 C 
ATOM     24  O   UNL     1       2.453  -0.038  -1.350  0.00  0.00    +0.000 OA
ATOM     25  N   UNL     1       1.503  -1.169   0.386  0.00  0.00    +0.000 N 
ATOM     26  H   UNL     1       1.199  -1.153   1.350  0.00  0.00    +0.000 HD
BRANCH  25  27
ATOM     27  C   UNL     1       1.172  -2.342  -0.411  0.00  0.00    +0.000 C 
ATOM     28  C   UNL     1       2.442  -3.070  -0.864  0.00  0.00    +0.000 C 
BRANCH  27  29
ATOM     29  C   UNL     1       0.291  -3.273   0.394  0.00  0.00    +0.000 A 
ATOM     30  C   UNL     1       0.677  -3.739   1.659  0.00  0.00    +0.000 A 
ATOM     31  C   UNL     1      -0.201  -4.503   2.423  0.00  0.00    +0.000 A 
ATOM     32  C   UNL     1      -1.428  -4.849   1.867  0.00  0.00    +0.000 A 
ATOM     33  N   UNL     1      -1.794  -4.493   0.607  0.00  0.00    +0.000 NA
ATOM     34  C   UNL     1      -0.943  -3.699  -0.086  0.00  0.00    +0.000 A 
BRANCH  32  35
ATOM     35  N   UNL     1      -2.367  -5.550   2.677  0.00  0.00    +0.000 N 
ATOM     36  C   UNL     1      -2.744  -5.205   3.961  0.00  0.00    +0.000 A 
ATOM     37  C   UNL     1      -3.711  -6.104   4.309  0.00  0.00    +0.000 A 
ATOM     38  F   UNL     1      -4.403  -6.109   5.410  0.00  0.00    +0.000 F 
ATOM     39  C   UNL     1      -3.827  -6.996   3.244  0.00  0.00    +0.000 A 
ATOM     40  N   UNL     1      -3.033  -6.650   2.226  0.00  0.00    +0.000 NA
ENDBRANCH  32  35
ENDBRANCH  27  29
ENDBRANCH  25  27
ENDBRANCH   1  23
BRANCH   1  42
ATOM     41  C   UNL     1       4.501  -0.632   1.184  0.00  0.00    +0.000 C 
ATOM     42  O   UNL     1       4.124   0.741   1.177  0.00  0.00    +0.000 OA
ENDBRANCH   1  42
TORSDOF 7
