REMARK  Name = Pralatrexate
REMARK  13 active torsions:
REMARK  status: ('A' for Active; 'I' for Inactive)
REMARK    1  A    between atoms: C_7  and  C_8
REMARK    2  A    between atoms: C_8  and  C_9
REMARK    3  A    between atoms: C_9  and  C_10
REMARK    4  A    between atoms: C_9  and  C_13
REMARK    5  A    between atoms: C_10  and  C_11
REMARK    6  A    between atoms: C_16  and  C_19
REMARK    7  A    between atoms: N_21  and  CA_22
REMARK    8  A    between atoms: CA_22  and  CB_23
REMARK    9  A    between atoms: CA_22  and  C_28
REMARK   10  A    between atoms: CB_23  and  CG_24
REMARK   11  A    between atoms: CG_24  and  CD_25
REMARK   12  A    between atoms: CD_25  and  OE1_26
REMARK   13  A    between atoms: C_28  and  O_29
REMARK                            x       y       z     vdW  Elec       q    Type
REMARK                         _______ _______ _______ _____ _____    ______ ____
ROOT
ATOM      1  C   UNK A   0       9.315  -0.153   0.070  0.00  0.00    +0.000 C 
ENDROOT
BRANCH   1   2
ATOM      2  C   UNK A   0      10.839  -0.162   0.089  0.00  0.00    +0.000 A 
ATOM      3  C   UNK A   0      11.594   1.013   0.058  0.00  0.00    +0.000 A 
ATOM      4  C   UNK A   0      12.962   0.972   0.283  0.00  0.00    +0.000 A 
ATOM      5  C   UNK A   0      13.635  -0.250   0.219  0.00  0.00    +0.000 A 
ATOM      6  C   UNK A   0      12.905  -1.437   0.180  0.00  0.00    +0.000 A 
ATOM      7  C   UNK A   0      11.515  -1.390   0.187  0.00  0.00    +0.000 A 
BRANCH   5   8
ATOM      8  C   UNK A   0      15.107  -0.202   0.052  0.00  0.00    +0.000 C 
ATOM      9  O   UNK A   0      15.639   0.879  -0.176  0.00  0.00    +0.000 OA
ATOM     10  N   GLU A   1      15.804  -1.391   0.146  0.00  0.00    +0.000 N 
ATOM     11  H   GLU A   1      15.262  -2.228   0.177  0.00  0.00    +0.000 HD
BRANCH  10  12
ATOM     12  CA  GLU A   1      17.272  -1.463   0.145  0.00  0.00    +0.000 C 
BRANCH  12  13
ATOM     13  C   GLU A   1      17.874  -2.880  -0.052  0.00  0.00    +0.000 C 
ATOM     14  OXT GLU A   1      19.083  -3.085  -0.066  0.00  0.00    +0.000 OA
BRANCH  13  15
ATOM     15  O   GLU A   1      17.018  -3.918  -0.156  0.00  0.00    +0.000 OA
ATOM     16  H   GLU A   1      16.067  -3.750  -0.157  0.00  0.00    +0.000 HD
ENDBRANCH  13  15
ENDBRANCH  12  13
BRANCH  12  17
ATOM     17  CB  GLU A   1      17.868  -0.920   1.470  0.00  0.00    +0.000 C 
BRANCH  17  18
ATOM     18  CG  GLU A   1      17.478   0.518   1.796  0.00  0.00    +0.000 C 
BRANCH  18  19
ATOM     19  CD  GLU A   1      17.991   1.154   3.050  0.00  0.00    +0.000 C 
ATOM     20  OE2 GLU A   1      17.681   2.310   3.361  0.00  0.00    +0.000 OA
BRANCH  19  21
ATOM     21  OE1 GLU A   1      18.738   0.390   3.856  0.00  0.00    +0.000 OA
ATOM     22  HE1 GLU A   1      18.921  -0.511   3.536  0.00  0.00    +0.000 HD
ENDBRANCH  19  21
ENDBRANCH  18  19
ENDBRANCH  17  18
ENDBRANCH  12  17
ENDBRANCH  10  12
ENDBRANCH   5   8
ENDBRANCH   1   2
BRANCH   1  23
ATOM     23  C   UNK A   0       8.681   1.276   0.222  0.00  0.00    +0.000 C 
BRANCH  23  30
ATOM     24  N   UNK A   0       1.136   0.091  -0.135  0.00  0.00    +0.000 N 
ATOM     25  C   UNK A   0       2.487   0.099   0.124  0.00  0.00    +0.000 A 
ATOM     26  N   UNK A   0       3.127   1.268   0.089  0.00  0.00    +0.000 NA
ATOM     27  C   UNK A   0       4.429   1.310   0.394  0.00  0.00    +0.000 A 
ATOM     28  N   UNK A   0       5.095   2.450   0.102  0.00  0.00    +0.000 NA
ATOM     29  C   UNK A   0       6.455   2.460   0.151  0.00  0.00    +0.000 A 
ATOM     30  C   UNK A   0       7.182   1.359   0.548  0.00  0.00    +0.000 A 
ATOM     31  N   UNK A   0       6.517   0.289   1.086  0.00  0.00    +0.000 NA
ATOM     32  C   UNK A   0       5.129   0.201   0.892  0.00  0.00    +0.000 A 
ATOM     33  C   UNK A   0       4.353  -1.017   0.781  0.00  0.00    +0.000 A 
ATOM     34  N   UNK A   0       4.977  -2.310   0.850  0.00  0.00    +0.000 N 
ATOM     35  N   UNK A   0       3.066  -1.068   0.386  0.00  0.00    +0.000 NA
ATOM     36  H   UNK A   0       0.673   0.972   0.034  0.00  0.00    +0.000 HD
ATOM     37  H   UNK A   0       0.661  -0.768   0.102  0.00  0.00    +0.000 HD
ATOM     38  H   UNK A   0       5.923  -2.305   0.466  0.00  0.00    +0.000 HD
ATOM     39  H   UNK A   0       4.414  -2.978   0.315  0.00  0.00    +0.000 HD
ENDBRANCH  23  30
ENDBRANCH   1  23
BRANCH   1  40
ATOM     40  C   UNK A   0       8.844  -0.908  -1.195  0.00  0.00    +0.000 C 
BRANCH  40  41
ATOM     41  C   UNK A   0       7.324  -0.906  -1.197  0.00  0.00    +0.000 C 
ATOM     42  C   UNK A   0       6.020  -0.905  -1.199  0.00  0.00    +0.000 C 
ENDBRANCH  40  41
ENDBRANCH   1  40
TORSDOF 13
