REMARK  Name = Pramipexole
REMARK  4 active torsions:
REMARK  status: ('A' for Active; 'I' for Inactive)
REMARK    1  A    between atoms: C_1  and  C_2
REMARK    2  A    between atoms: C_2  and  C_3
REMARK    3  A    between atoms: C_3  and  N_4
REMARK    4  A    between atoms: N_4  and  C_5
REMARK                            x       y       z     vdW  Elec       q    Type
REMARK                         _______ _______ _______ _____ _____    ______ ____
ROOT
ATOM      1  C   UNL     1       5.120   2.070  -2.089  0.00  0.00    +0.000 C 
ATOM      2  C   UNL     1       4.745   1.579  -3.512  0.00  0.00    +0.000 C 
ATOM      3  C   UNL     1       5.099   0.112  -3.734  0.00  0.00    +0.000 C 
ATOM      4  C   UNL     1       6.489  -0.166  -3.309  0.00  0.00    +0.000 A 
ATOM      5  C   UNL     1       7.191   0.651  -2.445  0.00  0.00    +0.000 A 
ATOM      6  C   UNL     1       6.671   1.955  -1.865  0.00  0.00    +0.000 C 
ATOM      7  S   UNL     1       8.740  -0.028  -2.188  0.00  0.00    +0.000 S 
ATOM      8  C   UNL     1       8.344  -1.347  -3.240  0.00  0.00    +0.000 A 
ATOM      9  N   UNL     1       9.184  -2.350  -3.519  0.00  0.00    +0.000 N 
ATOM     10  N   UNL     1       7.139  -1.292  -3.756  0.00  0.00    +0.000 NA
ATOM     11  H   UNL     1      10.114  -2.426  -3.132  0.00  0.00    +0.000 HD
ATOM     12  H   UNL     1       8.877  -3.089  -4.141  0.00  0.00    +0.000 HD
ENDROOT
BRANCH   1  13
ATOM     13  N   UNL     1       4.402   3.343  -1.917  0.00  0.00    +0.000 NA
ATOM     14  H   UNL     1       3.919   3.602  -2.777  0.00  0.00    +0.000 HD
BRANCH  13  15
ATOM     15  C   UNL     1       5.063   4.519  -1.387  0.00  0.00    +0.000 C 
BRANCH  15  17
ATOM     16  C   UNL     1       4.553   6.927  -0.749  0.00  0.00    +0.000 C 
ATOM     17  C   UNL     1       3.983   5.610  -1.245  0.00  0.00    +0.000 C 
ENDBRANCH  15  17
ENDBRANCH  13  15
ENDBRANCH   1  13
TORSDOF 3
