REMARK  Name = Pramocaine
REMARK  10 active torsions:
REMARK  status: ('A' for Active; 'I' for Inactive)
REMARK    1  A    between atoms: C_1  and  C_2
REMARK    2  A    between atoms: C_2  and  C_3
REMARK    3  A    between atoms: C_3  and  C_4
REMARK    4  A    between atoms: C_4  and  O_5
REMARK    5  A    between atoms: O_5  and  C_6
REMARK    6  A    between atoms: C_9  and  O_10
REMARK    7  A    between atoms: O_10  and  C_11
REMARK    8  A    between atoms: C_11  and  C_12
REMARK    9  A    between atoms: C_12  and  C_13
REMARK   10  A    between atoms: C_13  and  N_14
REMARK                            x       y       z     vdW  Elec       q    Type
REMARK                         _______ _______ _______ _____ _____    ______ ____
ROOT
ATOM      1  C   UNL     1       6.331   0.677  -3.012  0.00  0.00    +0.000 A 
ATOM      2  C   UNL     1       6.902   1.619  -3.869  0.00  0.00    +0.000 A 
ATOM      3  C   UNL     1       8.258   1.544  -4.196  0.00  0.00    +0.000 A 
ATOM      4  C   UNL     1       9.047   0.536  -3.634  0.00  0.00    +0.000 A 
ATOM      5  C   UNL     1       8.464  -0.413  -2.805  0.00  0.00    +0.000 A 
ATOM      6  C   UNL     1       7.118  -0.350  -2.494  0.00  0.00    +0.000 A 
ENDROOT
BRANCH   1   7
ATOM      7  O   UNL     1       4.986   0.775  -2.799  0.00  0.00    +0.000 OA
BRANCH   7   8
ATOM      8  C   UNL     1       4.556   0.385  -1.492  0.00  0.00    +0.000 C 
BRANCH   8   9
ATOM      9  C   UNL     1       3.034   0.370  -1.485  0.00  0.00    +0.000 C 
BRANCH   9  11
ATOM     10  C   UNL     1       0.980   0.051  -0.079  0.00  0.00    +0.000 C 
ATOM     11  C   UNL     1       2.497   0.059  -0.092  0.00  0.00    +0.000 C 
ENDBRANCH   9  11
ENDBRANCH   8   9
ENDBRANCH   7   8
ENDBRANCH   1   7
BRANCH   4  12
ATOM     12  O   UNL     1      10.374   0.551  -3.932  0.00  0.00    +0.000 OA
BRANCH  12  13
ATOM     13  C   UNL     1      11.164  -0.421  -3.223  0.00  0.00    +0.000 C 
BRANCH  13  14
ATOM     14  C   UNL     1      12.585  -0.061  -3.521  0.00  0.00    +0.000 C 
BRANCH  14  15
ATOM     15  C   UNL     1      13.652  -1.060  -3.095  0.00  0.00    +0.000 C 
BRANCH  15  16
ATOM     16  N   UNL     1      15.025  -0.756  -3.545  0.00  0.00    +0.000 NA
ATOM     17  C   UNL     1      15.379   0.679  -3.488  0.00  0.00    +0.000 C 
ATOM     18  C   UNL     1      14.813   1.544  -4.641  0.00  0.00    +0.000 C 
ATOM     19  O   UNL     1      15.055   0.972  -5.933  0.00  0.00    +0.000 OA
ATOM     20  C   UNL     1      14.686  -0.412  -6.024  0.00  0.00    +0.000 C 
ATOM     21  C   UNL     1      15.325  -1.244  -4.906  0.00  0.00    +0.000 C 
ENDBRANCH  15  16
ENDBRANCH  14  15
ENDBRANCH  13  14
ENDBRANCH  12  13
ENDBRANCH   4  12
TORSDOF 9
