REMARK  Name = Pramiracetam
REMARK  11 active torsions:
REMARK  status: ('A' for Active; 'I' for Inactive)
REMARK    1  A    between atoms: C_1  and  C_2
REMARK    2  A    between atoms: C_2  and  C_3
REMARK    3  A    between atoms: C_2  and  N_4
REMARK    4  A    between atoms: N_4  and  C_5
REMARK    5  A    between atoms: N_4  and  C_17
REMARK    6  A    between atoms: C_5  and  C_6
REMARK    7  A    between atoms: C_6  and  N_7
REMARK    8  A    between atoms: C_8  and  C_10
REMARK    9  A    between atoms: C_10  and  N_11
REMARK   10  A    between atoms: C_17  and  C_18
REMARK   11  A    between atoms: C_17  and  C_19
REMARK                            x       y       z     vdW  Elec       q    Type
REMARK                         _______ _______ _______ _____ _____    ______ ____
ROOT
ATOM      1  N   UNL     1       0.609   3.765  -1.197  0.00  0.00    +0.000 N 
ATOM      2  C   UNL     1      -0.765   3.817  -0.983  0.00  0.00    +0.000 C 
ATOM      3  O   UNL     1      -1.413   2.773  -0.885  0.00  0.00    +0.000 OA
ATOM      4  H   UNL     1       1.179   4.523  -0.844  0.00  0.00    +0.000 HD
ENDROOT
BRANCH   1   5
ATOM      5  C   UNL     1       1.115   2.415  -1.137  0.00  0.00    +0.000 C 
BRANCH   5   6
ATOM      6  C   UNL     1       2.614   2.202  -1.025  0.00  0.00    +0.000 C 
BRANCH   6   7
ATOM      7  N   UNL     1       3.102   0.777  -1.079  0.00  0.00    +0.000 NA
BRANCH   7   9
ATOM      8  C   UNL     1       1.035  -0.211   0.144  0.00  0.00    +0.000 C 
ATOM      9  C   UNL     1       2.570  -0.065   0.061  0.00  0.00    +0.000 C 
ATOM     10  C   UNL     1       2.965  -1.552   0.029  0.00  0.00    +0.000 C 
ENDBRANCH   7   9
BRANCH   7  11
ATOM     11  C   UNL     1       4.610   0.806  -1.158  0.00  0.00    +0.000 C 
ATOM     12  C   UNL     1       5.310  -0.544  -1.379  0.00  0.00    +0.000 C 
ATOM     13  C   UNL     1       5.128   1.657  -2.340  0.00  0.00    +0.000 C 
ENDBRANCH   7  11
ENDBRANCH   6   7
ENDBRANCH   5   6
ENDBRANCH   1   5
BRANCH   2  14
ATOM     14  C   UNL     1      -1.381   5.205  -0.817  0.00  0.00    +0.000 C 
BRANCH  14  15
ATOM     15  N   UNL     1      -2.844   5.234  -0.852  0.00  0.00    +0.000 N 
ATOM     16  C   UNL     1      -3.689   4.063  -0.752  0.00  0.00    +0.000 C 
ATOM     17  C   UNL     1      -5.066   4.577  -1.094  0.00  0.00    +0.000 C 
ATOM     18  C   UNL     1      -5.034   6.015  -0.612  0.00  0.00    +0.000 C 
ATOM     19  C   UNL     1      -3.583   6.406  -0.800  0.00  0.00    +0.000 C 
ATOM     20  O   UNL     1      -3.149   7.538  -0.838  0.00  0.00    +0.000 OA
ENDBRANCH  14  15
ENDBRANCH   2  14
TORSDOF 7
