REMARK  Name = Prasugrel
REMARK  7 active torsions:
REMARK  status: ('A' for Active; 'I' for Inactive)
REMARK    1  A    between atoms: C_1  and  C_2
REMARK    2  A    between atoms: C_2  and  O_4
REMARK    3  A    between atoms: O_4  and  C_5
REMARK    4  A    between atoms: N_11  and  C_13
REMARK    5  A    between atoms: C_13  and  C_14
REMARK    6  A    between atoms: C_13  and  C_19
REMARK    7  A    between atoms: C_14  and  C_16
REMARK                            x       y       z     vdW  Elec       q    Type
REMARK                         _______ _______ _______ _____ _____    ______ ____
ROOT
ATOM      1  C   UNL     1       4.511  -1.049  -0.532  0.00  0.00    +0.000 A 
ATOM      2  C   UNL     1       5.298  -1.351  -1.628  0.00  0.00    +0.000 A 
ATOM      3  C   UNL     1       6.694  -1.342  -1.334  0.00  0.00    +0.000 A 
ATOM      4  C   UNL     1       6.921  -1.049  -0.017  0.00  0.00    +0.000 A 
ATOM      5  C   UNL     1       8.285  -0.914   0.534  0.00  0.00    +0.000 C 
ATOM      6  C   UNL     1       9.288  -1.513  -0.468  0.00  0.00    +0.000 C 
ATOM      7  N   UNL     1       9.113  -1.051  -1.872  0.00  0.00    +0.000 NA
ATOM      8  C   UNL     1       7.795  -1.565  -2.319  0.00  0.00    +0.000 C 
ATOM      9  S   UNL     1       5.501  -0.854   0.872  0.00  0.00    +0.000 S 
ENDROOT
BRANCH   1  10
ATOM     10  O   UNL     1       3.179  -1.012  -0.516  0.00  0.00    +0.000 OA
BRANCH  10  12
ATOM     11  C   UNL     1       1.087  -0.107   0.058  0.00  0.00    +0.000 C 
ATOM     12  C   UNL     1       2.582   0.019   0.132  0.00  0.00    +0.000 C 
ATOM     13  O   UNL     1       3.122   0.972   0.678  0.00  0.00    +0.000 OA
ENDBRANCH  10  12
ENDBRANCH   1  10
BRANCH   7  14
ATOM     14  C   UNL     1      10.259  -1.486  -2.801  0.00  0.00    +0.000 C 
BRANCH  14  15
ATOM     15  C   UNL     1      11.675  -1.057  -2.276  0.00  0.00    +0.000 A 
ATOM     16  C   UNL     1      12.503  -0.134  -2.939  0.00  0.00    +0.000 A 
ATOM     17  C   UNL     1      13.711   0.330  -2.422  0.00  0.00    +0.000 A 
ATOM     18  C   UNL     1      14.115  -0.062  -1.163  0.00  0.00    +0.000 A 
ATOM     19  C   UNL     1      13.358  -1.003  -0.482  0.00  0.00    +0.000 A 
ATOM     20  C   UNL     1      12.222  -1.559  -1.082  0.00  0.00    +0.000 A 
ATOM     21  F   UNL     1      11.652  -2.590  -0.436  0.00  0.00    +0.000 F 
ENDBRANCH  14  15
BRANCH  14  22
ATOM     22  C   UNL     1      10.003  -0.958  -4.303  0.00  0.00    +0.000 C 
ATOM     23  O   UNL     1      10.740  -0.222  -4.957  0.00  0.00    +0.000 OA
BRANCH  22  24
ATOM     24  C   UNL     1       8.798  -1.379  -5.067  0.00  0.00    +0.000 C 
ATOM     25  C   UNL     1       8.792  -1.261  -6.576  0.00  0.00    +0.000 C 
ATOM     26  C   UNL     1       8.790  -2.610  -5.923  0.00  0.00    +0.000 C 
ENDBRANCH  22  24
ENDBRANCH  14  22
ENDBRANCH   7  14
TORSDOF 6
