REMARK  Name = Prasterone enantate
REMARK  10 active torsions:
REMARK  status: ('A' for Active; 'I' for Inactive)
REMARK    1  A    between atoms: C_7  and  C_8
REMARK    2  A    between atoms: C_19  and  O_24
REMARK    3  A    between atoms: C_22  and  C_23
REMARK    4  A    between atoms: O_24  and  C_25
REMARK    5  A    between atoms: C_25  and  C_27
REMARK    6  A    between atoms: C_27  and  C_28
REMARK    7  A    between atoms: C_28  and  C_29
REMARK    8  A    between atoms: C_29  and  C_30
REMARK    9  A    between atoms: C_30  and  C_31
REMARK   10  A    between atoms: C_31  and  C_32
REMARK                            x       y       z     vdW  Elec       q    Type
REMARK                         _______ _______ _______ _____ _____    ______ ____
ROOT
ATOM      1  C   UNL     1       1.984   0.009   0.088  0.00  0.00    +0.000 C 
ATOM      2  C   UNL     1       2.419   1.307   0.759  0.00  0.00    +0.000 C 
ATOM      3  C   UNL     1       2.289   0.976   2.257  0.00  0.00    +0.000 C 
ATOM      4  C   UNL     1       2.421  -0.536   2.294  0.00  0.00    +0.000 C 
ATOM      5  O   UNL     1       2.369  -1.205   3.316  0.00  0.00    +0.000 OA
ATOM      6  C   UNL     1       2.674  -1.096   0.910  0.00  0.00    +0.000 C 
ATOM      7  C   UNL     1       4.201  -1.175   0.751  0.00  0.00    +0.000 C 
ATOM      8  C   UNL     1       2.001  -2.426   0.593  0.00  0.00    +0.000 C 
ATOM      9  C   UNL     1       2.067  -2.712  -0.911  0.00  0.00    +0.000 C 
ATOM     10  C   UNL     1       1.518  -1.558  -1.792  0.00  0.00    +0.000 C 
ATOM     11  C   UNL     1       2.164  -0.191  -1.423  0.00  0.00    +0.000 C 
ATOM     12  C   UNL     1       1.500   0.947  -2.209  0.00  0.00    +0.000 C 
ATOM     13  C   UNL     1       1.226   0.620  -3.643  0.00  0.00    +0.000 C 
ATOM     14  C   UNL     1       1.265  -0.618  -4.165  0.00  0.00    +0.000 C 
ATOM     15  C   UNL     1       0.975  -0.843  -5.635  0.00  0.00    +0.000 C 
ATOM     16  C   UNL     1      -0.059  -1.951  -5.851  0.00  0.00    +0.000 C 
ATOM     17  C   UNL     1       0.348  -3.232  -5.131  0.00  0.00    +0.000 C 
ATOM     18  C   UNL     1       0.516  -2.952  -3.642  0.00  0.00    +0.000 C 
ATOM     19  C   UNL     1       1.586  -1.864  -3.332  0.00  0.00    +0.000 C 
ATOM     20  C   UNL     1       2.990  -2.360  -3.742  0.00  0.00    +0.000 C 
ENDROOT
BRANCH  16  21
ATOM     21  O   UNL     1      -0.133  -2.237  -7.262  0.00  0.00    +0.000 OA
BRANCH  21  22
ATOM     22  C   UNL     1      -1.261  -2.137  -8.003  0.00  0.00    +0.000 C 
ATOM     23  O   UNL     1      -1.230  -2.393  -9.205  0.00  0.00    +0.000 OA
BRANCH  22  24
ATOM     24  C   UNL     1      -2.523  -1.704  -7.294  0.00  0.00    +0.000 C 
BRANCH  24  25
ATOM     25  C   UNL     1      -3.696  -1.638  -8.266  0.00  0.00    +0.000 C 
BRANCH  25  26
ATOM     26  C   UNL     1      -4.974  -1.201  -7.562  0.00  0.00    +0.000 C 
BRANCH  26  27
ATOM     27  C   UNL     1      -6.128  -1.143  -8.556  0.00  0.00    +0.000 C 
BRANCH  27  28
ATOM     28  C   UNL     1      -7.414  -0.707  -7.866  0.00  0.00    +0.000 C 
ATOM     29  C   UNL     1      -8.559  -0.651  -8.860  0.00  0.00    +0.000 C 
ENDBRANCH  27  28
ENDBRANCH  26  27
ENDBRANCH  25  26
ENDBRANCH  24  25
ENDBRANCH  22  24
ENDBRANCH  21  22
ENDBRANCH  16  21
TORSDOF 7
