REMARK  Name = Prasterone
REMARK  3 active torsions:
REMARK  status: ('A' for Active; 'I' for Inactive)
REMARK    1  A    between atoms: C_7  and  C_8
REMARK    2  A    between atoms: C_19  and  O_21
REMARK    3  A    between atoms: C_24  and  C_25
REMARK                            x       y       z     vdW  Elec       q    Type
REMARK                         _______ _______ _______ _____ _____    ______ ____
ROOT
ATOM      1  C   UNL     1       1.910   0.114   0.159  0.00  0.00    +0.000 C 
ATOM      2  C   UNL     1       2.440   0.002   1.520  0.00  0.00    +0.000 C 
ATOM      3  C   UNL     1       3.724   0.041   0.754  0.00  0.00    +0.000 C 
ATOM      4  C   UNL     1       3.010   0.676  -0.924  0.00  0.00    +0.000 C 
ATOM      5  O   UNL     1       2.878   0.717  -2.164  0.00  0.00    +0.000 OA
ATOM      6  C   UNL     1       2.770   1.699  -0.185  0.00  0.00    +0.000 C 
ATOM      7  C   UNL     1       1.963   2.883   0.054  0.00  0.00    +0.000 C 
ATOM      8  C   UNL     1       4.493   1.706  -0.713  0.00  0.00    +0.000 C 
ATOM      9  C   UNL     1       5.101   0.116  -1.485  0.00  0.00    +0.000 C 
ATOM     10  C   UNL     1       4.373  -1.405  -1.131  0.00  0.00    +0.000 C 
ATOM     11  C   UNL     1       2.592  -1.403  -0.733  0.00  0.00    +0.000 C 
ATOM     12  C   UNL     1       2.226  -2.614   0.081  0.00  0.00    +0.000 C 
ATOM     13  C   UNL     1       2.926  -3.808  -0.394  0.00  0.00    +0.000 C 
ATOM     14  C   UNL     1       3.940  -3.853  -1.279  0.00  0.00    +0.000 C 
ATOM     15  C   UNL     1       4.458  -5.241  -1.425  0.00  0.00    +0.000 C 
ATOM     16  C   UNL     1       5.731  -5.219  -2.138  0.00  0.00    +0.000 C 
ATOM     17  C   UNL     1       6.767  -4.609  -2.959  0.00  0.00    +0.000 C 
ATOM     18  C   UNL     1       6.379  -2.985  -2.406  0.00  0.00    +0.000 C 
ATOM     19  C   UNL     1       4.688  -2.656  -2.048  0.00  0.00    +0.000 C 
ATOM     20  C   UNL     1       4.067  -2.327  -3.406  0.00  0.00    +0.000 C 
ENDROOT
BRANCH  16  21
ATOM     21  O   UNL     1       6.587  -5.001  -0.939  0.00  0.00    +0.000 OA
ATOM     22  H   UNL     1       6.662  -4.117  -0.538  0.00  0.00    +0.000 HD
ENDBRANCH  16  21
TORSDOF 1
