REMARK  Name = Pravastatin
REMARK  18 active torsions:
REMARK  status: ('A' for Active; 'I' for Inactive)
REMARK    1  A    between atoms: C_3  and  O_25
REMARK    2  A    between atoms: C_5  and  O_6
REMARK    3  A    between atoms: C_11  and  C_12
REMARK    4  A    between atoms: C_13  and  C_14
REMARK    5  A    between atoms: C_14  and  C_15
REMARK    6  A    between atoms: C_15  and  C_16
REMARK    7  A    between atoms: C_16  and  O_17
REMARK    8  A    between atoms: C_16  and  C_18
REMARK    9  A    between atoms: C_18  and  C_19
REMARK   10  A    between atoms: C_19  and  O_20
REMARK   11  A    between atoms: C_19  and  C_21
REMARK   12  A    between atoms: C_21  and  C_22
REMARK   13  A    between atoms: C_22  and  O_23
REMARK   14  A    between atoms: O_25  and  C_26
REMARK   15  A    between atoms: C_26  and  C_28
REMARK   16  A    between atoms: C_28  and  C_29
REMARK   17  A    between atoms: C_28  and  C_30
REMARK   18  A    between atoms: C_30  and  C_31
REMARK                            x       y       z     vdW  Elec       q    Type
REMARK                         _______ _______ _______ _____ _____    ______ ____
ROOT
ATOM      1  C   UNL     1       2.004  -0.031  -0.086  0.00  0.00    +0.000 C 
ATOM      2  C   UNL     1       2.576   0.902  -1.209  0.00  0.00    +0.000 C 
ATOM      3  C   UNL     1       3.618   0.214  -2.034  0.00  0.00    +0.000 C 
ATOM      4  C   UNL     1       3.105  -0.979  -2.725  0.00  0.00    +0.000 C 
ATOM      5  C   UNL     1       2.787  -1.915  -1.629  0.00  0.00    +0.000 C 
ATOM      6  C   UNL     1       2.350  -1.504  -0.418  0.00  0.00    +0.000 C 
ATOM      7  C   UNL     1       2.268  -2.468   0.648  0.00  0.00    +0.000 C 
ATOM      8  C   UNL     1       2.047  -2.118   1.918  0.00  0.00    +0.000 C 
ATOM      9  C   UNL     1       1.860  -0.703   2.385  0.00  0.00    +0.000 C 
ATOM     10  C   UNL     1       0.365  -0.478   2.643  0.00  0.00    +0.000 C 
ATOM     11  C   UNL     1       2.409   0.358   1.393  0.00  0.00    +0.000 C 
ENDROOT
BRANCH   4  12
ATOM     12  O   UNL     1       1.981  -0.646  -3.516  0.00  0.00    +0.000 OA
ATOM     13  H   UNL     1       1.238  -0.412  -2.934  0.00  0.00    +0.000 HD
ENDBRANCH   4  12
BRANCH  11  14
ATOM     14  C   UNL     1       1.917   1.758   1.961  0.00  0.00    +0.000 C 
BRANCH  14  15
ATOM     15  C   UNL     1       2.359   2.940   1.182  0.00  0.00    +0.000 C 
BRANCH  15  16
ATOM     16  C   UNL     1       2.158   4.384   1.481  0.00  0.00    +0.000 C 
BRANCH  16  17
ATOM     17  O   UNL     1       2.808   4.623   2.714  0.00  0.00    +0.000 OA
ATOM     18  H   UNL     1       3.745   4.383   2.575  0.00  0.00    +0.000 HD
ENDBRANCH  16  17
BRANCH  16  19
ATOM     19  C   UNL     1       2.753   5.292   0.365  0.00  0.00    +0.000 C 
BRANCH  19  20
ATOM     20  C   UNL     1       2.389   6.725   0.605  0.00  0.00    +0.000 C 
BRANCH  20  21
ATOM     21  O   UNL     1       2.893   7.133   1.881  0.00  0.00    +0.000 OA
ATOM     22  H   UNL     1       3.802   6.773   1.965  0.00  0.00    +0.000 HD
ENDBRANCH  20  21
BRANCH  20  23
ATOM     23  C   UNL     1       3.024   7.654  -0.406  0.00  0.00    +0.000 C 
BRANCH  23  24
ATOM     24  C   UNL     1       2.676   9.090  -0.104  0.00  0.00    +0.000 C 
ATOM     25  O   UNL     1       3.076  10.010  -0.805  0.00  0.00    +0.000 OA
BRANCH  24  26
ATOM     26  O   UNL     1       1.899   9.315   0.981  0.00  0.00    +0.000 OA
ATOM     27  H   UNL     1       1.835   8.547   1.600  0.00  0.00    +0.000 HD
ENDBRANCH  24  26
ENDBRANCH  23  24
ENDBRANCH  20  23
ENDBRANCH  19  20
ENDBRANCH  16  19
ENDBRANCH  15  16
ENDBRANCH  14  15
ENDBRANCH  11  14
BRANCH   2  28
ATOM     28  O   UNL     1       3.348   1.933  -0.605  0.00  0.00    +0.000 OA
BRANCH  28  29
ATOM     29  C   UNL     1       4.242   2.871  -0.906  0.00  0.00    +0.000 C 
ATOM     30  O   UNL     1       4.739   3.548  -0.043  0.00  0.00    +0.000 OA
BRANCH  29  31
ATOM     31  C   UNL     1       4.774   2.898  -2.261  0.00  0.00    +0.000 C 
ATOM     32  C   UNL     1       3.738   2.971  -3.382  0.00  0.00    +0.000 C 
BRANCH  31  33
ATOM     33  C   UNL     1       5.763   4.045  -2.288  0.00  0.00    +0.000 C 
ATOM     34  C   UNL     1       6.708   3.728  -3.404  0.00  0.00    +0.000 C 
ENDBRANCH  31  33
ENDBRANCH  29  31
ENDBRANCH  28  29
ENDBRANCH   2  28
TORSDOF 15
