REMARK  Name = Praziquantel
REMARK  1 active torsions:
REMARK  status: ('A' for Active; 'I' for Inactive)
REMARK    1  A    between atoms: C_2  and  C_3
REMARK                            x       y       z     vdW  Elec       q    Type
REMARK                         _______ _______ _______ _____ _____    ______ ____
ROOT
ATOM      1  O   UNL     1       1.052  -0.271  -0.132  0.00  0.00    +0.000 OA
ATOM      2  C   UNL     1       2.279  -0.228  -0.194  0.00  0.00    +0.000 C 
ATOM      3  N   UNL     1       3.006  -1.331  -0.689  0.00  0.00    +0.000 N 
ATOM      4  C   UNL     1       4.428  -1.391  -0.471  0.00  0.00    +0.000 C 
ATOM      5  C   UNL     1       5.180  -2.730  -0.711  0.00  0.00    +0.000 C 
ATOM      6  N   UNL     1       4.353  -3.902  -0.958  0.00  0.00    +0.000 N 
ATOM      7  C   UNL     1       3.912  -4.669   0.195  0.00  0.00    +0.000 C 
ATOM      8  C   UNL     1       5.026  -5.121   1.097  0.00  0.00    +0.000 C 
ATOM      9  C   UNL     1       5.988  -3.995   1.350  0.00  0.00    +0.000 A 
ATOM     10  C   UNL     1       6.755  -4.026   2.509  0.00  0.00    +0.000 A 
ATOM     11  C   UNL     1       7.630  -2.983   2.795  0.00  0.00    +0.000 A 
ATOM     12  C   UNL     1       7.761  -1.906   1.924  0.00  0.00    +0.000 A 
ATOM     13  C   UNL     1       7.030  -1.880   0.747  0.00  0.00    +0.000 A 
ATOM     14  C   UNL     1       6.125  -2.915   0.457  0.00  0.00    +0.000 A 
ATOM     15  C   UNL     1       3.277  -3.659  -1.814  0.00  0.00    +0.000 C 
ATOM     16  O   UNL     1       2.962  -4.486  -2.658  0.00  0.00    +0.000 OA
ATOM     17  C   UNL     1       2.340  -2.558  -1.221  0.00  0.00    +0.000 C 
ENDROOT
BRANCH   2  18
ATOM     18  C   UNL     1       3.069   1.076   0.292  0.00  0.00    +0.000 C 
ATOM     19  C   UNL     1       2.367   2.375  -0.173  0.00  0.00    +0.000 C 
ATOM     20  C   UNL     1       3.098   3.655   0.269  0.00  0.00    +0.000 C 
ATOM     21  C   UNL     1       3.294   3.707   1.779  0.00  0.00    +0.000 C 
ATOM     22  C   UNL     1       4.004   2.447   2.262  0.00  0.00    +0.000 C 
ATOM     23  C   UNL     1       3.269   1.163   1.826  0.00  0.00    +0.000 C 
ENDBRANCH   2  18
TORSDOF 1
