REMARK  Name = Prazosin
REMARK  5 active torsions:
REMARK  status: ('A' for Active; 'I' for Inactive)
REMARK    1  A    between atoms: C_1  and  O_2
REMARK    2  A    between atoms: O_2  and  C_3
REMARK    3  A    between atoms: C_4  and  O_5
REMARK    4  A    between atoms: O_5  and  C_6
REMARK    5  A    between atoms: C_22  and  C_24
REMARK                            x       y       z     vdW  Elec       q    Type
REMARK                         _______ _______ _______ _____ _____    ______ ____
ROOT
ATOM      1  C   UNL     1       3.028   0.411   1.284  0.00  0.00    +0.000 A 
ATOM      2  C   UNL     1       2.610   0.010   2.554  0.00  0.00    +0.000 A 
ATOM      3  C   UNL     1       3.372   0.430   3.641  0.00  0.00    +0.000 A 
ATOM      4  C   UNL     1       4.545   1.235   3.493  0.00  0.00    +0.000 A 
ATOM      5  C   UNL     1       5.353   1.644   4.557  0.00  0.00    +0.000 A 
ATOM      6  N   UNL     1       5.064   1.290   5.862  0.00  0.00    +0.000 N 
ATOM      7  N   UNL     1       6.469   2.384   4.405  0.00  0.00    +0.000 NA
ATOM      8  C   UNL     1       6.796   2.812   3.177  0.00  0.00    +0.000 A 
ATOM      9  N   UNL     1       6.065   2.475   2.091  0.00  0.00    +0.000 NA
ATOM     10  C   UNL     1       4.971   1.666   2.238  0.00  0.00    +0.000 A 
ATOM     11  C   UNL     1       4.198   1.209   1.150  0.00  0.00    +0.000 A 
ATOM     12  N   UNL     1       7.951   3.558   3.060  0.00  0.00    +0.000 N 
ATOM     13  C   UNL     1       8.041   4.896   2.462  0.00  0.00    +0.000 C 
ATOM     14  C   UNL     1       8.731   5.894   3.456  0.00  0.00    +0.000 C 
ATOM     15  N   UNL     1      10.009   5.355   3.975  0.00  0.00    +0.000 N 
ATOM     16  C   UNL     1       9.849   4.027   4.588  0.00  0.00    +0.000 C 
ATOM     17  C   UNL     1       9.210   3.034   3.594  0.00  0.00    +0.000 C 
ATOM     18  C   UNL     1      11.194   6.111   3.954  0.00  0.00    +0.000 C 
ATOM     19  O   UNL     1      11.192   7.270   3.517  0.00  0.00    +0.000 OA
ATOM     20  H   UNL     1       4.255   0.759   6.131  0.00  0.00    +0.000 HD
ATOM     21  H   UNL     1       5.682   1.657   6.569  0.00  0.00    +0.000 HD
ENDROOT
BRANCH  18  22
ATOM     22  C   UNL     1      12.431   5.475   4.398  0.00  0.00    +0.000 A 
ATOM     23  C   UNL     1      13.064   4.319   3.970  0.00  0.00    +0.000 A 
ATOM     24  C   UNL     1      14.233   4.160   4.750  0.00  0.00    +0.000 A 
ATOM     25  C   UNL     1      14.282   5.251   5.584  0.00  0.00    +0.000 A 
ATOM     26  O   UNL     1      13.209   6.064   5.370  0.00  0.00    +0.000 OA
ENDBRANCH  18  22
BRANCH   1  28
ATOM     27  C   UNL     1       1.013  -0.010   0.059  0.00  0.00    +0.000 C 
ATOM     28  O   UNL     1       2.443   0.018   0.100  0.00  0.00    +0.000 OA
ENDBRANCH   1  28
BRANCH   2  29
ATOM     29  O   UNL     1       1.522  -0.806   2.669  0.00  0.00    +0.000 OA
ATOM     30  C   UNL     1       1.047  -1.183   3.955  0.00  0.00    +0.000 C 
ENDBRANCH   2  29
TORSDOF 3
