REMARK  Name = Prazepam
REMARK  3 active torsions:
REMARK  status: ('A' for Active; 'I' for Inactive)
REMARK    1  A    between atoms: N_8  and  C_9
REMARK    2  A    between atoms: C_9  and  C_10
REMARK    3  A    between atoms: C_17  and  C_18
REMARK                            x       y       z     vdW  Elec       q    Type
REMARK                         _______ _______ _______ _____ _____    ______ ____
ROOT
ATOM      1 CL   UNL     1       0.936   0.066   0.044  0.00  0.00    +0.000 Cl
ATOM      2  C   UNL     1       2.628   0.150  -0.245  0.00  0.00    +0.000 A 
ATOM      3  C   UNL     1       3.325   1.339  -0.060  0.00  0.00    +0.000 A 
ATOM      4  C   UNL     1       4.736   1.360  -0.164  0.00  0.00    +0.000 A 
ATOM      5  C   UNL     1       5.429   0.187  -0.505  0.00  0.00    +0.000 A 
ATOM      6  C   UNL     1       4.673  -0.881  -0.972  0.00  0.00    +0.000 A 
ATOM      7  C   UNL     1       3.305  -0.971  -0.686  0.00  0.00    +0.000 A 
ATOM      8  N   UNL     1       6.817  -0.022  -0.188  0.00  0.00    +0.000 N 
ATOM      9  C   UNL     1       7.763   0.871  -0.701  0.00  0.00    +0.000 C 
ATOM     10  O   UNL     1       8.987   0.660  -0.633  0.00  0.00    +0.000 OA
ATOM     11  C   UNL     1       7.197   2.088  -1.420  0.00  0.00    +0.000 C 
ATOM     12  N   UNL     1       6.563   2.987  -0.442  0.00  0.00    +0.000 NA
ATOM     13  C   UNL     1       5.464   2.623   0.131  0.00  0.00    +0.000 C 
ENDROOT
BRANCH  13  14
ATOM     14  C   UNL     1       4.870   3.531   1.150  0.00  0.00    +0.000 A 
ATOM     15  C   UNL     1       4.500   4.829   0.790  0.00  0.00    +0.000 A 
ATOM     16  C   UNL     1       4.002   5.693   1.766  0.00  0.00    +0.000 A 
ATOM     17  C   UNL     1       3.784   5.232   3.066  0.00  0.00    +0.000 A 
ATOM     18  C   UNL     1       4.056   3.903   3.393  0.00  0.00    +0.000 A 
ATOM     19  C   UNL     1       4.649   3.064   2.451  0.00  0.00    +0.000 A 
ENDBRANCH  13  14
BRANCH   8  20
ATOM     20  C   UNL     1       7.359  -1.191   0.587  0.00  0.00    +0.000 C 
BRANCH  20  21
ATOM     21  C   UNL     1       6.474  -2.123   1.441  0.00  0.00    +0.000 C 
ATOM     22  C   UNL     1       5.042  -1.784   1.668  0.00  0.00    +0.000 C 
ATOM     23  C   UNL     1       5.422  -2.983   0.792  0.00  0.00    +0.000 C 
ENDBRANCH  20  21
ENDBRANCH   8  20
TORSDOF 3
