REMARK  Name = Prednisone acetate
REMARK  8 active torsions:
REMARK  status: ('A' for Active; 'I' for Inactive)
REMARK    1  A    between atoms: C_5  and  O_6
REMARK    2  A    between atoms: C_5  and  C_7
REMARK    3  A    between atoms: C_7  and  C_9
REMARK    4  A    between atoms: C_9  and  O_10
REMARK    5  A    between atoms: O_10  and  C_11
REMARK    6  A    between atoms: C_11  and  C_12
REMARK    7  A    between atoms: C_14  and  C_15
REMARK    8  A    between atoms: C_31  and  C_32
REMARK                            x       y       z     vdW  Elec       q    Type
REMARK                         _______ _______ _______ _____ _____    ______ ____
ROOT
ATOM      1  C   UNL     1       1.743  -0.064  -0.215  0.00  0.00    +0.000 C 
ATOM      2  C   UNL     1       2.137  -0.088  -1.576  0.00  0.00    +0.000 C 
ATOM      3  C   UNL     1       3.194  -0.440  -0.566  0.00  0.00    +0.000 C 
ATOM      4  C   UNL     1       2.588  -0.969   1.348  0.00  0.00    +0.000 C 
ATOM      5  C   UNL     1       2.681  -1.673   0.189  0.00  0.00    +0.000 C 
ATOM      6  C   UNL     1       1.950  -2.870  -0.304  0.00  0.00    +0.000 C 
ATOM      7  C   UNL     1       4.504  -1.577   0.623  0.00  0.00    +0.000 C 
ATOM      8  C   UNL     1       4.852  -0.090   1.375  0.00  0.00    +0.000 C 
ATOM      9  O   UNL     1       5.518  -0.123   2.413  0.00  0.00    +0.000 OA
ATOM     10  C   UNL     1       4.210   1.351   0.805  0.00  0.00    +0.000 C 
ATOM     11  C   UNL     1       2.498   1.344   0.652  0.00  0.00    +0.000 C 
ATOM     12  C   UNL     1       2.022   2.583  -0.075  0.00  0.00    +0.000 C 
ATOM     13  C   UNL     1       2.565   3.847   0.547  0.00  0.00    +0.000 C 
ATOM     14  C   UNL     1       4.051   3.882   0.790  0.00  0.00    +0.000 C 
ATOM     15  C   UNL     1       4.808   4.964   0.525  0.00  0.00    +0.000 C 
ATOM     16  C   UNL     1       6.209   4.829   0.998  0.00  0.00    +0.000 C 
ATOM     17  O   UNL     1       6.724   5.367   1.968  0.00  0.00    +0.000 OA
ATOM     18  C   UNL     1       6.951   3.772   0.224  0.00  0.00    +0.000 C 
ATOM     19  C   UNL     1       6.322   2.806   0.946  0.00  0.00    +0.000 C 
ATOM     20  C   UNL     1       4.756   2.665   1.415  0.00  0.00    +0.000 C 
ATOM     21  C   UNL     1       4.285   2.602   2.881  0.00  0.00    +0.000 C 
ENDROOT
BRANCH   4  22
ATOM     22  O   UNL     1       1.109  -0.959   1.665  0.00  0.00    +0.000 OA
ATOM     23  H   UNL     1       0.894  -1.077   2.598  0.00  0.00    +0.000 HD
ENDBRANCH   4  22
BRANCH   4  24
ATOM     24  C   UNL     1       2.816  -2.421   2.475  0.00  0.00    +0.000 C 
ATOM     25  O   UNL     1       3.330  -3.480   2.077  0.00  0.00    +0.000 OA
BRANCH  24  26
ATOM     26  C   UNL     1       2.248  -2.561   4.014  0.00  0.00    +0.000 C 
BRANCH  26  27
ATOM     27  O   UNL     1       2.733  -3.862   4.617  0.00  0.00    +0.000 OA
BRANCH  27  28
ATOM     28  C   UNL     1       2.556  -4.393   5.860  0.00  0.00    +0.000 C 
ATOM     29  C   UNL     1       1.728  -3.646   6.862  0.00  0.00    +0.000 C 
ATOM     30  O   UNL     1       3.062  -5.469   6.185  0.00  0.00    +0.000 OA
ENDBRANCH  27  28
ENDBRANCH  26  27
ENDBRANCH  24  26
ENDBRANCH   4  24
TORSDOF 5
