REMARK  Name = Prednisone
REMARK  6 active torsions:
REMARK  status: ('A' for Active; 'I' for Inactive)
REMARK    1  A    between atoms: C_5  and  O_6
REMARK    2  A    between atoms: C_5  and  C_7
REMARK    3  A    between atoms: C_7  and  C_9
REMARK    4  A    between atoms: C_9  and  O_10
REMARK    5  A    between atoms: C_11  and  C_12
REMARK    6  A    between atoms: C_28  and  C_29
REMARK                            x       y       z     vdW  Elec       q    Type
REMARK                         _______ _______ _______ _____ _____    ______ ____
ROOT
ATOM      1  C   UNL     1       1.847  -0.088  -0.108  0.00  0.00    +0.000 C 
ATOM      2  C   UNL     1       2.240  -0.112  -1.470  0.00  0.00    +0.000 C 
ATOM      3  C   UNL     1       3.300  -0.463  -0.464  0.00  0.00    +0.000 C 
ATOM      4  C   UNL     1       2.694  -0.993   1.448  0.00  0.00    +0.000 C 
ATOM      5  C   UNL     1       2.785  -1.697   0.290  0.00  0.00    +0.000 C 
ATOM      6  C   UNL     1       2.053  -2.895  -0.200  0.00  0.00    +0.000 C 
ATOM      7  C   UNL     1       4.607  -1.601   0.730  0.00  0.00    +0.000 C 
ATOM      8  C   UNL     1       4.957  -0.114   1.484  0.00  0.00    +0.000 C 
ATOM      9  O   UNL     1       5.634  -0.146   2.515  0.00  0.00    +0.000 OA
ATOM     10  C   UNL     1       4.314   1.326   0.915  0.00  0.00    +0.000 C 
ATOM     11  C   UNL     1       2.602   1.319   0.761  0.00  0.00    +0.000 C 
ATOM     12  C   UNL     1       2.125   2.559   0.035  0.00  0.00    +0.000 C 
ATOM     13  C   UNL     1       2.669   3.823   0.658  0.00  0.00    +0.000 C 
ATOM     14  C   UNL     1       4.154   3.858   0.900  0.00  0.00    +0.000 C 
ATOM     15  C   UNL     1       4.911   4.939   0.635  0.00  0.00    +0.000 C 
ATOM     16  C   UNL     1       6.312   4.804   1.108  0.00  0.00    +0.000 C 
ATOM     17  O   UNL     1       6.827   5.344   2.076  0.00  0.00    +0.000 OA
ATOM     18  C   UNL     1       7.054   3.746   0.335  0.00  0.00    +0.000 C 
ATOM     19  C   UNL     1       6.425   2.781   1.058  0.00  0.00    +0.000 C 
ATOM     20  C   UNL     1       4.859   2.640   1.526  0.00  0.00    +0.000 C 
ATOM     21  C   UNL     1       4.389   2.577   2.991  0.00  0.00    +0.000 C 
ENDROOT
BRANCH   4  22
ATOM     22  O   UNL     1       1.213  -0.991   1.769  0.00  0.00    +0.000 OA
ATOM     23  H   UNL     1       1.003  -1.090   2.707  0.00  0.00    +0.000 HD
ENDBRANCH   4  22
BRANCH   4  24
ATOM     24  C   UNL     1       2.917  -2.445   2.554  0.00  0.00    +0.000 C 
ATOM     25  O   UNL     1       3.415  -3.518   2.167  0.00  0.00    +0.000 OA
BRANCH  24  26
ATOM     26  C   UNL     1       2.352  -2.580   4.053  0.00  0.00    +0.000 C 
BRANCH  26  27
ATOM     27  O   UNL     1       2.795  -3.816   4.688  0.00  0.00    +0.000 OA
ATOM     28  H   UNL     1       2.579  -4.565   4.097  0.00  0.00    +0.000 HD
ENDBRANCH  26  27
ENDBRANCH  24  26
ENDBRANCH   4  24
TORSDOF 4
