REMARK  Name = Prednicarbate
REMARK  14 active torsions:
REMARK  status: ('A' for Active; 'I' for Inactive)
REMARK    1  A    between atoms: C_5  and  O_6
REMARK    2  A    between atoms: C_5  and  C_12
REMARK    3  A    between atoms: O_6  and  C_7
REMARK    4  A    between atoms: C_7  and  O_9
REMARK    5  A    between atoms: O_9  and  C_10
REMARK    6  A    between atoms: C_10  and  C_11
REMARK    7  A    between atoms: C_12  and  C_14
REMARK    8  A    between atoms: C_14  and  O_15
REMARK    9  A    between atoms: O_15  and  C_16
REMARK   10  A    between atoms: C_16  and  C_18
REMARK   11  A    between atoms: C_18  and  C_19
REMARK   12  A    between atoms: C_20  and  C_21
REMARK   13  A    between atoms: C_23  and  O_24
REMARK   14  A    between atoms: C_37  and  C_38
REMARK                            x       y       z     vdW  Elec       q    Type
REMARK                         _______ _______ _______ _____ _____    ______ ____
ROOT
ATOM      1  C   UNL     1       1.930  -0.010  -0.209  0.00  0.00    +0.000 C 
ATOM      2  C   UNL     1       2.344  -0.019  -1.566  0.00  0.00    +0.000 C 
ATOM      3  C   UNL     1       3.326  -0.371  -0.500  0.00  0.00    +0.000 C 
ATOM      4  C   UNL     1       2.574  -0.880   1.369  0.00  0.00    +0.000 C 
ATOM      5  C   UNL     1       2.812  -1.617   0.249  0.00  0.00    +0.000 C 
ATOM      6  C   UNL     1       2.078  -2.817  -0.235  0.00  0.00    +0.000 C 
ATOM      7  C   UNL     1       4.605  -1.496   0.769  0.00  0.00    +0.000 C 
ATOM      8  C   UNL     1       4.920  -0.007   1.544  0.00  0.00    +0.000 C 
ATOM      9  C   UNL     1       4.352   1.428   0.918  0.00  0.00    +0.000 C 
ATOM     10  C   UNL     1       2.686   1.427   0.693  0.00  0.00    +0.000 C 
ATOM     11  C   UNL     1       2.194   2.678  -0.006  0.00  0.00    +0.000 C 
ATOM     12  C   UNL     1       2.703   3.935   0.654  0.00  0.00    +0.000 C 
ATOM     13  C   UNL     1       4.184   3.975   0.902  0.00  0.00    +0.000 C 
ATOM     14  C   UNL     1       4.938   5.058   0.642  0.00  0.00    +0.000 C 
ATOM     15  C   UNL     1       6.338   4.919   1.117  0.00  0.00    +0.000 C 
ATOM     16  O   UNL     1       6.853   5.453   2.089  0.00  0.00    +0.000 OA
ATOM     17  C   UNL     1       7.077   3.858   0.345  0.00  0.00    +0.000 C 
ATOM     18  C   UNL     1       6.447   2.897   1.072  0.00  0.00    +0.000 C 
ATOM     19  C   UNL     1       4.883   2.761   1.531  0.00  0.00    +0.000 C 
ATOM     20  C   UNL     1       4.433   2.739   3.002  0.00  0.00    +0.000 C 
ENDROOT
BRANCH   4  21
ATOM     21  C   UNL     1       2.831  -2.336   2.540  0.00  0.00    +0.000 C 
ATOM     22  O   UNL     1       3.377  -3.390   2.153  0.00  0.00    +0.000 OA
BRANCH  21  23
ATOM     23  C   UNL     1       2.343  -2.509   4.111  0.00  0.00    +0.000 C 
BRANCH  23  24
ATOM     24  O   UNL     1       2.889  -3.851   4.712  0.00  0.00    +0.000 OA
BRANCH  24  25
ATOM     25  C   UNL     1       2.622  -4.244   6.010  0.00  0.00    +0.000 C 
ATOM     26  O   UNL     1       1.929  -3.577   6.772  0.00  0.00    +0.000 OA
BRANCH  25  27
ATOM     27  C   UNL     1       3.266  -5.594   6.457  0.00  0.00    +0.000 C 
ATOM     28  C   UNL     1       2.948  -5.944   7.930  0.00  0.00    +0.000 C 
ENDBRANCH  25  27
ENDBRANCH  24  25
ENDBRANCH  23  24
ENDBRANCH  21  23
ENDBRANCH   4  21
BRANCH   8  29
ATOM     29  O   UNL     1       4.464  -0.187   2.900  0.00  0.00    +0.000 OA
ATOM     30  H   UNL     1       3.599   0.237   3.045  0.00  0.00    +0.000 HD
ENDBRANCH   8  29
BRANCH   4  31
ATOM     31  O   UNL     1       0.943  -0.984   1.634  0.00  0.00    +0.000 OA
BRANCH  31  32
ATOM     32  C   UNL     1       0.029   0.063   1.711  0.00  0.00    +0.000 C 
ATOM     33  O   UNL     1       0.318   1.246   1.715  0.00  0.00    +0.000 OA
BRANCH  32  34
ATOM     34  O   UNL     1      -1.279  -0.335   1.540  0.00  0.00    +0.000 OA
BRANCH  34  35
ATOM     35  C   UNL     1      -2.064   0.781   1.030  0.00  0.00    +0.000 C 
ATOM     36  C   UNL     1      -3.565   0.602   1.143  0.00  0.00    +0.000 C 
ENDBRANCH  34  35
ENDBRANCH  32  34
ENDBRANCH  31  32
ENDBRANCH   4  31
TORSDOF 10
