REMARK  Name = Prednisolone phosphate
REMARK  10 active torsions:
REMARK  status: ('A' for Active; 'I' for Inactive)
REMARK    1  A    between atoms: C_5  and  O_6
REMARK    2  A    between atoms: C_5  and  C_7
REMARK    3  A    between atoms: C_7  and  C_9
REMARK    4  A    between atoms: C_9  and  O_10
REMARK    5  A    between atoms: O_10  and  P_11
REMARK    6  A    between atoms: P_11  and  O_12
REMARK    7  A    between atoms: P_11  and  O_13
REMARK    8  A    between atoms: C_15  and  C_16
REMARK    9  A    between atoms: C_18  and  O_19
REMARK   10  A    between atoms: C_32  and  C_33
REMARK                            x       y       z     vdW  Elec       q    Type
REMARK                         _______ _______ _______ _____ _____    ______ ____
ROOT
ATOM      1  C   UNL     1       1.823  -0.077  -0.092  0.00  0.00    +0.000 C 
ATOM      2  C   UNL     1       2.222  -0.091  -1.452  0.00  0.00    +0.000 C 
ATOM      3  C   UNL     1       3.270  -0.462  -0.439  0.00  0.00    +0.000 C 
ATOM      4  C   UNL     1       2.627  -1.039   1.444  0.00  0.00    +0.000 C 
ATOM      5  C   UNL     1       2.754  -1.703   0.280  0.00  0.00    +0.000 C 
ATOM      6  C   UNL     1       2.026  -2.903  -0.197  0.00  0.00    +0.000 C 
ATOM      7  C   UNL     1       4.567  -1.585   0.786  0.00  0.00    +0.000 C 
ATOM      8  C   UNL     1       4.882  -0.090   1.581  0.00  0.00    +0.000 C 
ATOM      9  C   UNL     1       4.277   1.336   0.980  0.00  0.00    +0.000 C 
ATOM     10  C   UNL     1       2.573   1.328   0.795  0.00  0.00    +0.000 C 
ATOM     11  C   UNL     1       2.110   2.575   0.070  0.00  0.00    +0.000 C 
ATOM     12  C   UNL     1       2.654   3.840   0.691  0.00  0.00    +0.000 C 
ATOM     13  C   UNL     1       4.139   3.880   0.931  0.00  0.00    +0.000 C 
ATOM     14  C   UNL     1       4.898   4.961   0.670  0.00  0.00    +0.000 C 
ATOM     15  C   UNL     1       6.301   4.824   1.144  0.00  0.00    +0.000 C 
ATOM     16  O   UNL     1       6.819   5.354   2.116  0.00  0.00    +0.000 OA
ATOM     17  C   UNL     1       7.040   3.768   0.369  0.00  0.00    +0.000 C 
ATOM     18  C   UNL     1       6.405   2.803   1.089  0.00  0.00    +0.000 C 
ATOM     19  C   UNL     1       4.837   2.670   1.563  0.00  0.00    +0.000 C 
ATOM     20  C   UNL     1       4.396   2.651   3.033  0.00  0.00    +0.000 C 
ENDROOT
BRANCH   4  21
ATOM     21  O   UNL     1       1.163  -1.004   1.770  0.00  0.00    +0.000 OA
ATOM     22  H   UNL     1       0.959  -1.095   2.710  0.00  0.00    +0.000 HD
ENDBRANCH   4  21
BRANCH   4  23
ATOM     23  C   UNL     1       2.881  -2.518   2.554  0.00  0.00    +0.000 C 
ATOM     24  O   UNL     1       3.415  -3.574   2.179  0.00  0.00    +0.000 OA
BRANCH  23  25
ATOM     25  C   UNL     1       2.347  -2.634   4.078  0.00  0.00    +0.000 C 
BRANCH  25  26
ATOM     26  O   UNL     1       2.811  -3.817   4.860  0.00  0.00    +0.000 OA
BRANCH  26  27
ATOM     27  P   UNL     1       2.210  -3.995   6.364  0.00  0.00    +0.000 P 
ATOM     28  O   UNL     1       2.677  -5.058   7.295  0.00  0.00    +0.000 OA
BRANCH  27  29
ATOM     29  O   UNL     1       2.516  -2.502   6.827  0.00  0.00    +0.000 OA
ATOM     30  H   UNL     1       3.440  -2.337   6.545  0.00  0.00    +0.000 HD
ENDBRANCH  27  29
BRANCH  27  31
ATOM     31  O   UNL     1       0.676  -4.065   5.943  0.00  0.00    +0.000 OA
ATOM     32  H   UNL     1       0.629  -4.698   5.199  0.00  0.00    +0.000 HD
ENDBRANCH  27  31
ENDBRANCH  26  27
ENDBRANCH  25  26
ENDBRANCH  23  25
ENDBRANCH   4  23
BRANCH   8  33
ATOM     33  O   UNL     1       4.434  -0.278   2.944  0.00  0.00    +0.000 OA
ATOM     34  H   UNL     1       3.571   0.156   3.075  0.00  0.00    +0.000 HD
ENDBRANCH   8  33
TORSDOF 8
