REMARK  Name = Prednisolone acetate
REMARK  9 active torsions:
REMARK  status: ('A' for Active; 'I' for Inactive)
REMARK    1  A    between atoms: C_5  and  O_6
REMARK    2  A    between atoms: C_5  and  C_7
REMARK    3  A    between atoms: C_7  and  C_9
REMARK    4  A    between atoms: C_9  and  O_10
REMARK    5  A    between atoms: O_10  and  C_11
REMARK    6  A    between atoms: C_11  and  C_12
REMARK    7  A    between atoms: C_14  and  C_15
REMARK    8  A    between atoms: C_17  and  O_19
REMARK    9  A    between atoms: C_32  and  C_33
REMARK                            x       y       z     vdW  Elec       q    Type
REMARK                         _______ _______ _______ _____ _____    ______ ____
ROOT
ATOM      1  C   UNL     1       1.717   0.044  -0.211  0.00  0.00    +0.000 C 
ATOM      2  C   UNL     1       2.118   0.028  -1.571  0.00  0.00    +0.000 C 
ATOM      3  C   UNL     1       3.164  -0.338  -0.554  0.00  0.00    +0.000 C 
ATOM      4  C   UNL     1       2.514  -0.899   1.333  0.00  0.00    +0.000 C 
ATOM      5  C   UNL     1       2.646  -1.580   0.174  0.00  0.00    +0.000 C 
ATOM      6  C   UNL     1       1.923  -2.780  -0.308  0.00  0.00    +0.000 C 
ATOM      7  C   UNL     1       4.459  -1.466   0.673  0.00  0.00    +0.000 C 
ATOM      8  C   UNL     1       4.779   0.030   1.462  0.00  0.00    +0.000 C 
ATOM      9  C   UNL     1       4.173   1.458   0.860  0.00  0.00    +0.000 C 
ATOM     10  C   UNL     1       2.468   1.451   0.676  0.00  0.00    +0.000 C 
ATOM     11  C   UNL     1       2.005   2.697  -0.050  0.00  0.00    +0.000 C 
ATOM     12  C   UNL     1       2.550   3.961   0.572  0.00  0.00    +0.000 C 
ATOM     13  C   UNL     1       4.034   4.000   0.812  0.00  0.00    +0.000 C 
ATOM     14  C   UNL     1       4.793   5.080   0.550  0.00  0.00    +0.000 C 
ATOM     15  C   UNL     1       6.196   4.944   1.025  0.00  0.00    +0.000 C 
ATOM     16  O   UNL     1       6.711   5.475   1.998  0.00  0.00    +0.000 OA
ATOM     17  C   UNL     1       6.935   3.887   0.251  0.00  0.00    +0.000 C 
ATOM     18  C   UNL     1       6.302   2.923   0.971  0.00  0.00    +0.000 C 
ATOM     19  C   UNL     1       4.734   2.790   1.445  0.00  0.00    +0.000 C 
ATOM     20  C   UNL     1       4.291   2.772   2.915  0.00  0.00    +0.000 C 
ENDROOT
BRANCH   4  21
ATOM     21  O   UNL     1       1.050  -0.860   1.655  0.00  0.00    +0.000 OA
ATOM     22  H   UNL     1       0.847  -0.997   2.588  0.00  0.00    +0.000 HD
ENDBRANCH   4  21
BRANCH   4  23
ATOM     23  C   UNL     1       2.761  -2.354   2.472  0.00  0.00    +0.000 C 
ATOM     24  O   UNL     1       3.282  -3.414   2.087  0.00  0.00    +0.000 OA
BRANCH  23  25
ATOM     25  C   UNL     1       2.222  -2.465   4.027  0.00  0.00    +0.000 C 
BRANCH  25  26
ATOM     26  O   UNL     1       2.714  -3.757   4.643  0.00  0.00    +0.000 OA
BRANCH  26  27
ATOM     27  C   UNL     1       2.542  -4.282   5.889  0.00  0.00    +0.000 C 
ATOM     28  C   UNL     1       1.716  -3.532   6.890  0.00  0.00    +0.000 C 
ATOM     29  O   UNL     1       3.051  -5.355   6.219  0.00  0.00    +0.000 OA
ENDBRANCH  26  27
ENDBRANCH  25  26
ENDBRANCH  23  25
ENDBRANCH   4  23
BRANCH   8  30
ATOM     30  O   UNL     1       4.337  -0.149   2.826  0.00  0.00    +0.000 OA
ATOM     31  H   UNL     1       3.469   0.274   2.958  0.00  0.00    +0.000 HD
ENDBRANCH   8  30
TORSDOF 6
