REMARK  Name = Prednisolone tebutate
REMARK  13 active torsions:
REMARK  status: ('A' for Active; 'I' for Inactive)
REMARK    1  A    between atoms: C_5  and  O_6
REMARK    2  A    between atoms: C_5  and  C_7
REMARK    3  A    between atoms: C_7  and  C_9
REMARK    4  A    between atoms: C_9  and  O_10
REMARK    5  A    between atoms: O_10  and  C_11
REMARK    6  A    between atoms: C_11  and  C_13
REMARK    7  A    between atoms: C_13  and  C_14
REMARK    8  A    between atoms: C_14  and  C_15
REMARK    9  A    between atoms: C_14  and  C_16
REMARK   10  A    between atoms: C_14  and  C_17
REMARK   11  A    between atoms: C_18  and  C_19
REMARK   12  A    between atoms: C_21  and  O_22
REMARK   13  A    between atoms: C_35  and  C_36
REMARK                            x       y       z     vdW  Elec       q    Type
REMARK                         _______ _______ _______ _____ _____    ______ ____
ROOT
ATOM      1  C   UNL     1       1.799  -0.076  -0.238  0.00  0.00    +0.000 C 
ATOM      2  C   UNL     1       2.199  -0.092  -1.598  0.00  0.00    +0.000 C 
ATOM      3  C   UNL     1       3.245  -0.459  -0.581  0.00  0.00    +0.000 C 
ATOM      4  C   UNL     1       2.598  -1.025   1.307  0.00  0.00    +0.000 C 
ATOM      5  C   UNL     1       2.729  -1.699   0.145  0.00  0.00    +0.000 C 
ATOM      6  C   UNL     1       2.005  -2.899  -0.339  0.00  0.00    +0.000 C 
ATOM      7  C   UNL     1       4.543  -1.583   0.642  0.00  0.00    +0.000 C 
ATOM      8  C   UNL     1       4.862  -0.088   1.432  0.00  0.00    +0.000 C 
ATOM      9  C   UNL     1       4.255   1.339   0.831  0.00  0.00    +0.000 C 
ATOM     10  C   UNL     1       2.550   1.331   0.647  0.00  0.00    +0.000 C 
ATOM     11  C   UNL     1       2.087   2.577  -0.080  0.00  0.00    +0.000 C 
ATOM     12  C   UNL     1       2.632   3.841   0.543  0.00  0.00    +0.000 C 
ATOM     13  C   UNL     1       4.117   3.880   0.783  0.00  0.00    +0.000 C 
ATOM     14  C   UNL     1       4.876   4.961   0.521  0.00  0.00    +0.000 C 
ATOM     15  C   UNL     1       6.278   4.824   0.995  0.00  0.00    +0.000 C 
ATOM     16  O   UNL     1       6.796   5.355   1.967  0.00  0.00    +0.000 OA
ATOM     17  C   UNL     1       7.018   3.768   0.220  0.00  0.00    +0.000 C 
ATOM     18  C   UNL     1       6.384   2.803   0.941  0.00  0.00    +0.000 C 
ATOM     19  C   UNL     1       4.816   2.671   1.415  0.00  0.00    +0.000 C 
ATOM     20  C   UNL     1       4.373   2.653   2.885  0.00  0.00    +0.000 C 
ENDROOT
BRANCH   4  21
ATOM     21  O   UNL     1       1.135  -0.985   1.630  0.00  0.00    +0.000 OA
ATOM     22  H   UNL     1       0.935  -1.122   2.565  0.00  0.00    +0.000 HD
ENDBRANCH   4  21
BRANCH   4  23
ATOM     23  C   UNL     1       2.856  -2.492   2.433  0.00  0.00    +0.000 C 
ATOM     24  O   UNL     1       3.380  -3.546   2.030  0.00  0.00    +0.000 OA
BRANCH  23  25
ATOM     25  C   UNL     1       2.345  -2.644   3.981  0.00  0.00    +0.000 C 
BRANCH  25  26
ATOM     26  O   UNL     1       2.883  -3.965   4.550  0.00  0.00    +0.000 OA
BRANCH  26  27
ATOM     27  C   UNL     1       2.581  -4.319   5.841  0.00  0.00    +0.000 C 
ATOM     28  O   UNL     1       1.873  -3.602   6.539  0.00  0.00    +0.000 OA
BRANCH  27  29
ATOM     29  C   UNL     1       3.207  -5.672   6.341  0.00  0.00    +0.000 C 
BRANCH  29  30
ATOM     30  C   UNL     1       2.877  -6.022   7.846  0.00  0.00    +0.000 C 
ATOM     31  C   UNL     1       3.427  -4.927   8.778  0.00  0.00    +0.000 C 
ATOM     32  C   UNL     1       1.358  -6.181   8.036  0.00  0.00    +0.000 C 
ATOM     33  C   UNL     1       3.526  -7.358   8.295  0.00  0.00    +0.000 C 
ENDBRANCH  29  30
ENDBRANCH  27  29
ENDBRANCH  26  27
ENDBRANCH  25  26
ENDBRANCH  23  25
ENDBRANCH   4  23
BRANCH   8  34
ATOM     34  O   UNL     1       4.423  -0.270   2.796  0.00  0.00    +0.000 OA
ATOM     35  H   UNL     1       3.553   0.148   2.934  0.00  0.00    +0.000 HD
ENDBRANCH   8  34
TORSDOF 8
