REMARK  Name = Prednisolone
REMARK  7 active torsions:
REMARK  status: ('A' for Active; 'I' for Inactive)
REMARK    1  A    between atoms: C_5  and  O_6
REMARK    2  A    between atoms: C_5  and  C_7
REMARK    3  A    between atoms: C_7  and  C_9
REMARK    4  A    between atoms: C_9  and  O_10
REMARK    5  A    between atoms: C_11  and  C_12
REMARK    6  A    between atoms: C_14  and  O_15
REMARK    7  A    between atoms: C_28  and  C_29
REMARK                            x       y       z     vdW  Elec       q    Type
REMARK                         _______ _______ _______ _____ _____    ______ ____
ROOT
ATOM      1  C   UNL     1       1.681  -0.018  -0.115  0.00  0.00    +0.000 C 
ATOM      2  C   UNL     1       2.081  -0.033  -1.475  0.00  0.00    +0.000 C 
ATOM      3  C   UNL     1       3.130  -0.399  -0.462  0.00  0.00    +0.000 C 
ATOM      4  C   UNL     1       2.480  -0.960   1.423  0.00  0.00    +0.000 C 
ATOM      5  C   UNL     1       2.611  -1.641   0.266  0.00  0.00    +0.000 C 
ATOM      6  C   UNL     1       1.885  -2.842  -0.214  0.00  0.00    +0.000 C 
ATOM      7  C   UNL     1       4.423  -1.528   0.770  0.00  0.00    +0.000 C 
ATOM      8  C   UNL     1       4.743  -0.031   1.559  0.00  0.00    +0.000 C 
ATOM      9  C   UNL     1       4.137   1.395   0.959  0.00  0.00    +0.000 C 
ATOM     10  C   UNL     1       2.432   1.389   0.774  0.00  0.00    +0.000 C 
ATOM     11  C   UNL     1       1.968   2.635   0.049  0.00  0.00    +0.000 C 
ATOM     12  C   UNL     1       2.513   3.898   0.673  0.00  0.00    +0.000 C 
ATOM     13  C   UNL     1       3.998   3.937   0.912  0.00  0.00    +0.000 C 
ATOM     14  C   UNL     1       4.757   5.018   0.650  0.00  0.00    +0.000 C 
ATOM     15  C   UNL     1       6.159   4.881   1.125  0.00  0.00    +0.000 C 
ATOM     16  O   UNL     1       6.675   5.415   2.096  0.00  0.00    +0.000 OA
ATOM     17  C   UNL     1       6.899   3.824   0.351  0.00  0.00    +0.000 C 
ATOM     18  C   UNL     1       6.265   2.860   1.073  0.00  0.00    +0.000 C 
ATOM     19  C   UNL     1       4.697   2.728   1.545  0.00  0.00    +0.000 C 
ATOM     20  C   UNL     1       4.255   2.710   3.015  0.00  0.00    +0.000 C 
ENDROOT
BRANCH   4  21
ATOM     21  O   UNL     1       1.014  -0.930   1.748  0.00  0.00    +0.000 OA
ATOM     22  H   UNL     1       0.816  -1.048   2.686  0.00  0.00    +0.000 HD
ENDBRANCH   4  21
BRANCH   4  23
ATOM     23  C   UNL     1       2.723  -2.414   2.541  0.00  0.00    +0.000 C 
ATOM     24  O   UNL     1       3.226  -3.489   2.168  0.00  0.00    +0.000 OA
BRANCH  23  25
ATOM     25  C   UNL     1       2.186  -2.521   4.055  0.00  0.00    +0.000 C 
BRANCH  25  26
ATOM     26  O   UNL     1       2.633  -3.746   4.706  0.00  0.00    +0.000 OA
ATOM     27  H   UNL     1       2.431  -4.499   4.114  0.00  0.00    +0.000 HD
ENDBRANCH  25  26
ENDBRANCH  23  25
ENDBRANCH   4  23
BRANCH   8  28
ATOM     28  O   UNL     1       4.306  -0.211   2.923  0.00  0.00    +0.000 OA
ATOM     29  H   UNL     1       3.436   0.203   3.064  0.00  0.00    +0.000 HD
ENDBRANCH   8  28
TORSDOF 5
