REMARK  Name = Pregnenolone
REMARK  5 active torsions:
REMARK  status: ('A' for Active; 'I' for Inactive)
REMARK    1  A    between atoms: C_5  and  C_6
REMARK    2  A    between atoms: C_6  and  C_7
REMARK    3  A    between atoms: C_9  and  C_10
REMARK    4  A    between atoms: C_21  and  O_22
REMARK    5  A    between atoms: C_25  and  C_26
REMARK                            x       y       z     vdW  Elec       q    Type
REMARK                         _______ _______ _______ _____ _____    ______ ____
ROOT
ATOM      1  C   UNL     1       2.070   0.067  -0.021  0.00  0.00    +0.000 C 
ATOM      2  C   UNL     1       2.560  -1.286  -0.487  0.00  0.00    +0.000 C 
ATOM      3  C   UNL     1       2.645  -1.143  -2.003  0.00  0.00    +0.000 C 
ATOM      4  C   UNL     1       2.471   0.355  -2.348  0.00  0.00    +0.000 C 
ATOM      5  C   UNL     1       2.711   1.078  -0.993  0.00  0.00    +0.000 C 
ATOM      6  C   UNL     1       4.230   1.298  -0.790  0.00  0.00    +0.000 C 
ATOM      7  C   UNL     1       1.952   2.403  -0.778  0.00  0.00    +0.000 C 
ATOM      8  C   UNL     1       2.062   2.872   0.687  0.00  0.00    +0.000 C 
ATOM      9  C   UNL     1       1.650   1.801   1.736  0.00  0.00    +0.000 C 
ATOM     10  C   UNL     1       2.289   0.418   1.448  0.00  0.00    +0.000 C 
ATOM     11  C   UNL     1       1.670  -0.655   2.353  0.00  0.00    +0.000 C 
ATOM     12  C   UNL     1       1.542  -0.219   3.774  0.00  0.00    +0.000 C 
ATOM     13  C   UNL     1       1.667   1.052   4.192  0.00  0.00    +0.000 C 
ATOM     14  C   UNL     1       1.575   1.377   5.665  0.00  0.00    +0.000 C 
ATOM     15  C   UNL     1       0.583   2.506   5.948  0.00  0.00    +0.000 C 
ATOM     16  C   UNL     1       0.860   3.726   5.073  0.00  0.00    +0.000 C 
ATOM     17  C   UNL     1       0.869   3.349   3.591  0.00  0.00    +0.000 C 
ATOM     18  C   UNL     1       1.891   2.233   3.234  0.00  0.00    +0.000 C 
ATOM     19  C   UNL     1       3.333   2.754   3.438  0.00  0.00    +0.000 C 
ENDROOT
BRANCH   4  20
ATOM     20  C   UNL     1       3.335   0.884  -3.497  0.00  0.00    +0.000 C 
ATOM     21  C   UNL     1       4.366   0.013  -4.175  0.00  0.00    +0.000 C 
ATOM     22  O   UNL     1       3.219   2.063  -3.861  0.00  0.00    +0.000 OA
ENDBRANCH   4  20
BRANCH  15  23
ATOM     23  O   UNL     1       0.652   2.881   7.322  0.00  0.00    +0.000 OA
ATOM     24  H   UNL     1       1.552   3.205   7.499  0.00  0.00    +0.000 HD
ENDBRANCH  15  23
TORSDOF 2
