REMARK  Name = Pregabalin
REMARK  9 active torsions:
REMARK  status: ('A' for Active; 'I' for Inactive)
REMARK    1  A    between atoms: C_1  and  C_2
REMARK    2  A    between atoms: C_2  and  C_3
REMARK    3  A    between atoms: C_2  and  C_4
REMARK    4  A    between atoms: C_4  and  C_5
REMARK    5  A    between atoms: C_5  and  C_6
REMARK    6  A    between atoms: C_5  and  C_8
REMARK    7  A    between atoms: C_6  and  N_7
REMARK    8  A    between atoms: C_8  and  C_9
REMARK    9  A    between atoms: C_9  and  O_10
REMARK                            x       y       z     vdW  Elec       q    Type
REMARK                         _______ _______ _______ _____ _____    ______ ____
ROOT
ATOM      1  C   UNL     1       4.616   1.343  -0.405  0.00  0.00    +0.000 C 
ENDROOT
BRANCH   1   2
ATOM      2  C   UNL     1       4.991   0.222  -1.400  0.00  0.00    +0.000 C 
BRANCH   2   4
ATOM      3  C   UNL     1       3.072  -1.385  -0.922  0.00  0.00    +0.000 C 
ATOM      4  C   UNL     1       4.578  -1.190  -0.958  0.00  0.00    +0.000 C 
ATOM      5  C   UNL     1       5.161  -2.211  -1.927  0.00  0.00    +0.000 C 
ENDBRANCH   2   4
ENDBRANCH   1   2
BRANCH   1   6
ATOM      6  C   UNL     1       3.097   1.630  -0.321  0.00  0.00    +0.000 C 
BRANCH   6   7
ATOM      7  N   UNL     1       2.824   2.538   0.784  0.00  0.00    +0.000 NA
ATOM      8  H   UNL     1       3.247   3.445   0.612  0.00  0.00    +0.000 HD
ATOM      9  H   UNL     1       3.274   2.165   1.622  0.00  0.00    +0.000 HD
ENDBRANCH   6   7
ENDBRANCH   1   6
BRANCH   1  10
ATOM     10  C   UNL     1       5.304   2.657  -0.821  0.00  0.00    +0.000 C 
BRANCH  10  11
ATOM     11  C   UNL     1       6.810   2.751  -0.804  0.00  0.00    +0.000 C 
ATOM     12  O   UNL     1       7.379   3.762  -1.172  0.00  0.00    +0.000 OA
BRANCH  11  13
ATOM     13  O   UNL     1       7.495   1.703  -0.312  0.00  0.00    +0.000 OA
ATOM     14  H   UNL     1       6.987   0.939   0.010  0.00  0.00    +0.000 HD
ENDBRANCH  11  13
ENDBRANCH  10  11
ENDBRANCH   1  10
TORSDOF 7
