REMARK  Name = Prenylamine
REMARK  9 active torsions:
REMARK  status: ('A' for Active; 'I' for Inactive)
REMARK    1  A    between atoms: C_1  and  C_2
REMARK    2  A    between atoms: C_2  and  C_3
REMARK    3  A    between atoms: C_2  and  N_10
REMARK    4  A    between atoms: C_3  and  C_4
REMARK    5  A    between atoms: N_10  and  C_11
REMARK    6  A    between atoms: C_11  and  C_12
REMARK    7  A    between atoms: C_12  and  C_13
REMARK    8  A    between atoms: C_13  and  C_14
REMARK    9  A    between atoms: C_13  and  C_20
REMARK                            x       y       z     vdW  Elec       q    Type
REMARK                         _______ _______ _______ _____ _____    ______ ____
ROOT
ATOM      1  C   UNL     1       4.980  -1.872  -2.135  0.00  0.00    +0.000 C 
ENDROOT
BRANCH   1   2
ATOM      2  C   UNL     1       4.452  -0.944  -1.062  0.00  0.00    +0.000 C 
BRANCH   2   3
ATOM      3  N   UNL     1       2.992  -0.963  -1.043  0.00  0.00    +0.000 NA
ATOM      4  H   UNL     1       2.635  -0.644  -1.943  0.00  0.00    +0.000 HD
BRANCH   3   6
ATOM      5  C   UNL     1       0.951  -0.101  -0.021  0.00  0.00    +0.000 C 
ATOM      6  C   UNL     1       2.479  -0.096   0.029  0.00  0.00    +0.000 C 
BRANCH   6   7
ATOM      7  C   UNL     1       2.964  -0.538   1.428  0.00  0.00    +0.000 C 
BRANCH   7   8
ATOM      8  C   UNL     1       2.576   0.385   2.551  0.00  0.00    +0.000 A 
ATOM      9  C   UNL     1       2.685   1.776   2.406  0.00  0.00    +0.000 A 
ATOM     10  C   UNL     1       2.500   2.612   3.500  0.00  0.00    +0.000 A 
ATOM     11  C   UNL     1       2.174   2.067   4.736  0.00  0.00    +0.000 A 
ATOM     12  C   UNL     1       2.027   0.687   4.882  0.00  0.00    +0.000 A 
ATOM     13  C   UNL     1       2.235  -0.155   3.793  0.00  0.00    +0.000 A 
ENDBRANCH   7   8
ENDBRANCH   6   7
ENDBRANCH   3   6
ENDBRANCH   2   3
ENDBRANCH   1   2
BRANCH   1  14
ATOM     14  C   UNL     1       6.527  -1.958  -2.123  0.00  0.00    +0.000 C 
BRANCH  14  15
ATOM     15  C   UNL     1       7.059  -2.413  -0.749  0.00  0.00    +0.000 A 
ATOM     16  C   UNL     1       7.063  -3.766  -0.360  0.00  0.00    +0.000 A 
ATOM     17  C   UNL     1       7.256  -4.152   0.964  0.00  0.00    +0.000 A 
ATOM     18  C   UNL     1       7.529  -3.199   1.923  0.00  0.00    +0.000 A 
ATOM     19  C   UNL     1       7.617  -1.854   1.559  0.00  0.00    +0.000 A 
ATOM     20  C   UNL     1       7.387  -1.465   0.231  0.00  0.00    +0.000 A 
ENDBRANCH  14  15
BRANCH  14  21
ATOM     21  C   UNL     1       6.956  -2.847  -3.285  0.00  0.00    +0.000 A 
ATOM     22  C   UNL     1       6.467  -4.164  -3.382  0.00  0.00    +0.000 A 
ATOM     23  C   UNL     1       6.990  -5.058  -4.305  0.00  0.00    +0.000 A 
ATOM     24  C   UNL     1       7.880  -4.599  -5.257  0.00  0.00    +0.000 A 
ATOM     25  C   UNL     1       8.285  -3.261  -5.259  0.00  0.00    +0.000 A 
ATOM     26  C   UNL     1       7.846  -2.392  -4.255  0.00  0.00    +0.000 A 
ENDBRANCH  14  21
ENDBRANCH   1  14
TORSDOF 8
