REMARK  Name = Pretomanid
REMARK  6 active torsions:
REMARK  status: ('A' for Active; 'I' for Inactive)
REMARK    1  A    between atoms: N_2  and  C_4
REMARK    2  A    between atoms: C_8  and  O_13
REMARK    3  A    between atoms: O_13  and  C_14
REMARK    4  A    between atoms: C_14  and  C_15
REMARK    5  A    between atoms: C_18  and  O_19
REMARK    6  A    between atoms: O_19  and  C_20
REMARK                            x       y       z     vdW  Elec       q    Type
REMARK                         _______ _______ _______ _____ _____    ______ ____
ROOT
ATOM      1  O   UNL     1       5.069  -5.074   3.868  0.00  0.00    +0.000 OA
ENDROOT
BRANCH   1   6
ATOM      2  C   UNL     1       3.140  -0.932   0.750  0.00  0.00    +0.000 A 
ATOM      3  C   UNL     1       2.870  -2.285   0.815  0.00  0.00    +0.000 A 
ATOM      4  N   UNL     1       3.915  -2.792   1.532  0.00  0.00    +0.000 N 
ATOM      5  C   UNL     1       4.153  -4.172   1.856  0.00  0.00    +0.000 C 
ATOM      6  C   UNL     1       5.436  -4.397   2.648  0.00  0.00    +0.000 C 
ATOM      7  C   UNL     1       6.251  -3.130   2.982  0.00  0.00    +0.000 C 
ATOM      8  O   UNL     1       5.959  -1.904   2.351  0.00  0.00    +0.000 OA
ATOM      9  C   UNL     1       4.760  -1.766   1.825  0.00  0.00    +0.000 A 
ATOM     10  N   UNL     1       4.311  -0.615   1.397  0.00  0.00    +0.000 NA
BRANCH   2  12
ATOM     11  O   UNL     1       1.153  -0.040   0.080  0.00  0.00    +0.000 OA
ATOM     12  N   UNL     1       2.390   0.085   0.065  0.00  0.00    +0.000 N 
ATOM     13  O   UNL     1       3.025   0.969  -0.516  0.00  0.00    +0.000 OA
ENDBRANCH   2  12
ENDBRANCH   1   6
BRANCH   1  14
ATOM     14  C   UNL     1       6.191  -5.372   4.682  0.00  0.00    +0.000 C 
BRANCH  14  15
ATOM     15  C   UNL     1       5.756  -6.034   5.944  0.00  0.00    +0.000 A 
ATOM     16  C   UNL     1       5.490  -5.297   7.105  0.00  0.00    +0.000 A 
ATOM     17  C   UNL     1       5.382  -5.962   8.325  0.00  0.00    +0.000 A 
ATOM     18  C   UNL     1       5.424  -7.359   8.369  0.00  0.00    +0.000 A 
ATOM     19  C   UNL     1       5.614  -8.080   7.188  0.00  0.00    +0.000 A 
ATOM     20  C   UNL     1       5.762  -7.422   5.979  0.00  0.00    +0.000 A 
BRANCH  18  21
ATOM     21  O   UNL     1       5.258  -7.916   9.605  0.00  0.00    +0.000 OA
BRANCH  21  22
ATOM     22  C   UNL     1       5.169  -9.333   9.641  0.00  0.00    +0.000 C 
ATOM     23  F   UNL     1       4.180  -9.788   8.839  0.00  0.00    +0.000 F 
ATOM     24  F   UNL     1       6.341  -9.895   9.270  0.00  0.00    +0.000 F 
ATOM     25  F   UNL     1       4.896  -9.726  10.903  0.00  0.00    +0.000 F 
ENDBRANCH  21  22
ENDBRANCH  18  21
ENDBRANCH  14  15
ENDBRANCH   1  14
TORSDOF 6
