REMARK  Name = Prilocaine
REMARK  8 active torsions:
REMARK  status: ('A' for Active; 'I' for Inactive)
REMARK    1  A    between atoms: C_1  and  C_2
REMARK    2  A    between atoms: C_2  and  C_3
REMARK    3  A    between atoms: C_3  and  N_4
REMARK    4  A    between atoms: N_4  and  C_5
REMARK    5  A    between atoms: C_5  and  C_6
REMARK    6  A    between atoms: C_5  and  C_7
REMARK    7  A    between atoms: N_9  and  C_10
REMARK    8  A    between atoms: C_15  and  C_16
REMARK                            x       y       z     vdW  Elec       q    Type
REMARK                         _______ _______ _______ _____ _____    ______ ____
ROOT
ATOM      1  C   UNL     1       6.499  -0.671  -2.748  0.00  0.00    +0.000 C 
ATOM      2  O   UNL     1       7.056  -0.101  -1.803  0.00  0.00    +0.000 OA
ATOM      3  N   UNL     1       7.188  -1.211  -3.834  0.00  0.00    +0.000 N 
ATOM      4  H   UNL     1       6.710  -1.232  -4.726  0.00  0.00    +0.000 HD
ENDROOT
BRANCH   3   5
ATOM      5  C   UNL     1       8.608  -1.224  -3.867  0.00  0.00    +0.000 A 
ATOM      6  C   UNL     1       9.275  -0.714  -4.994  0.00  0.00    +0.000 A 
ATOM      7  C   UNL     1      10.676  -0.686  -5.036  0.00  0.00    +0.000 A 
ATOM      8  C   UNL     1      11.417  -1.196  -3.974  0.00  0.00    +0.000 A 
ATOM      9  C   UNL     1      10.760  -1.744  -2.875  0.00  0.00    +0.000 A 
ATOM     10  C   UNL     1       9.358  -1.774  -2.809  0.00  0.00    +0.000 A 
ATOM     11  C   UNL     1       8.720  -2.488  -1.647  0.00  0.00    +0.000 C 
ENDBRANCH   3   5
BRANCH   1  12
ATOM     12  C   UNL     1       4.954  -0.784  -2.802  0.00  0.00    +0.000 C 
ATOM     13  C   UNL     1       4.459   0.155  -3.897  0.00  0.00    +0.000 C 
BRANCH  12  14
ATOM     14  N   UNL     1       4.408  -0.391  -1.482  0.00  0.00    +0.000 NA
ATOM     15  H   UNL     1       4.834  -0.960  -0.748  0.00  0.00    +0.000 HD
BRANCH  14  16
ATOM     16  C   UNL     1       2.960  -0.404  -1.406  0.00  0.00    +0.000 C 
BRANCH  16  18
ATOM     17  C   UNL     1       0.953   0.072  -0.024  0.00  0.00    +0.000 C 
ATOM     18  C   UNL     1       2.474   0.052  -0.034  0.00  0.00    +0.000 C 
ENDBRANCH  16  18
ENDBRANCH  14  16
ENDBRANCH  12  14
ENDBRANCH   1  12
TORSDOF 5
