REMARK  Name = Primidone
REMARK  3 active torsions:
REMARK  status: ('A' for Active; 'I' for Inactive)
REMARK    1  A    between atoms: C_1  and  C_2
REMARK    2  A    between atoms: C_2  and  C_3
REMARK    3  A    between atoms: C_3  and  C_11
REMARK                            x       y       z     vdW  Elec       q    Type
REMARK                         _______ _______ _______ _____ _____    ______ ____
ROOT
ATOM      1  C   UNL     1       3.016  -1.254  -0.713  0.00  0.00    +0.000 C 
ATOM      2  C   UNL     1       4.220  -1.595   0.186  0.00  0.00    +0.000 C 
ATOM      3  O   UNL     1       5.387  -1.219   0.051  0.00  0.00    +0.000 OA
ATOM      4  N   UNL     1       3.798  -2.141   1.392  0.00  0.00    +0.000 N 
ATOM      5  C   UNL     1       2.923  -3.261   1.345  0.00  0.00    +0.000 C 
ATOM      6  N   UNL     1       1.775  -2.918   0.584  0.00  0.00    +0.000 N 
ATOM      7  C   UNL     1       2.072  -2.483  -0.685  0.00  0.00    +0.000 C 
ATOM      8  O   UNL     1       1.562  -3.045  -1.653  0.00  0.00    +0.000 OA
ATOM      9  H   UNL     1       4.281  -1.883   2.241  0.00  0.00    +0.000 HD
ATOM     10  H   UNL     1       0.988  -3.551   0.611  0.00  0.00    +0.000 HD
ENDROOT
BRANCH   1  11
ATOM     11  C   UNL     1       3.224  -0.817  -2.164  0.00  0.00    +0.000 A 
ATOM     12  C   UNL     1       4.464  -0.703  -2.786  0.00  0.00    +0.000 A 
ATOM     13  C   UNL     1       4.546  -0.228  -4.098  0.00  0.00    +0.000 A 
ATOM     14  C   UNL     1       3.393   0.063  -4.831  0.00  0.00    +0.000 A 
ATOM     15  C   UNL     1       2.148  -0.070  -4.244  0.00  0.00    +0.000 A 
ATOM     16  C   UNL     1       2.075  -0.499  -2.929  0.00  0.00    +0.000 A 
ENDBRANCH   1  11
BRANCH   1  18
ATOM     17  C   UNL     1       0.894   0.076   0.141  0.00  0.00    +0.000 C 
ATOM     18  C   UNL     1       2.410  -0.006   0.060  0.00  0.00    +0.000 C 
ENDBRANCH   1  18
TORSDOF 2
