REMARK  Name = Primaquine
REMARK  9 active torsions:
REMARK  status: ('A' for Active; 'I' for Inactive)
REMARK    1  A    between atoms: C_1  and  O_2
REMARK    2  A    between atoms: O_2  and  C_3
REMARK    3  A    between atoms: C_5  and  N_6
REMARK    4  A    between atoms: N_6  and  C_7
REMARK    5  A    between atoms: C_7  and  C_8
REMARK    6  A    between atoms: C_7  and  C_9
REMARK    7  A    between atoms: C_9  and  C_10
REMARK    8  A    between atoms: C_10  and  C_11
REMARK    9  A    between atoms: C_11  and  N_12
REMARK                            x       y       z     vdW  Elec       q    Type
REMARK                         _______ _______ _______ _____ _____    ______ ____
ROOT
ATOM      1  C   UNL     1       3.123   1.030   0.773  0.00  0.00    +0.000 A 
ATOM      2  C   UNL     1       2.752   1.311   2.080  0.00  0.00    +0.000 A 
ATOM      3  C   UNL     1       3.427   2.263   2.863  0.00  0.00    +0.000 A 
ATOM      4  C   UNL     1       4.460   3.024   2.279  0.00  0.00    +0.000 A 
ATOM      5  N   UNL     1       5.083   4.006   2.975  0.00  0.00    +0.000 NA
ATOM      6  C   UNL     1       6.041   4.730   2.354  0.00  0.00    +0.000 A 
ATOM      7  C   UNL     1       6.447   4.517   1.050  0.00  0.00    +0.000 A 
ATOM      8  C   UNL     1       5.835   3.497   0.339  0.00  0.00    +0.000 A 
ATOM      9  C   UNL     1       4.824   2.737   0.935  0.00  0.00    +0.000 A 
ATOM     10  C   UNL     1       4.179   1.724   0.211  0.00  0.00    +0.000 A 
ENDROOT
BRANCH   1  12
ATOM     11  C   UNL     1       1.112   0.058   0.077  0.00  0.00    +0.000 C 
ATOM     12  O   UNL     1       2.538   0.048   0.024  0.00  0.00    +0.000 OA
ENDBRANCH   1  12
BRANCH   3  13
ATOM     13  N   UNL     1       3.092   2.448   4.214  0.00  0.00    +0.000 N 
ATOM     14  H   UNL     1       3.627   3.178   4.686  0.00  0.00    +0.000 HD
BRANCH  13  15
ATOM     15  C   UNL     1       2.119   1.638   4.940  0.00  0.00    +0.000 C 
ATOM     16  C   UNL     1       2.570   0.169   5.011  0.00  0.00    +0.000 C 
BRANCH  15  17
ATOM     17  C   UNL     1       1.915   2.180   6.368  0.00  0.00    +0.000 C 
BRANCH  17  18
ATOM     18  C   UNL     1       0.827   1.388   7.107  0.00  0.00    +0.000 C 
BRANCH  18  19
ATOM     19  C   UNL     1       0.639   1.861   8.539  0.00  0.00    +0.000 C 
BRANCH  19  20
ATOM     20  N   UNL     1      -0.377   1.035   9.181  0.00  0.00    +0.000 NA
ATOM     21  H   UNL     1      -1.265   1.134   8.692  0.00  0.00    +0.000 HD
ATOM     22  H   UNL     1      -0.530   1.362  10.133  0.00  0.00    +0.000 HD
ENDBRANCH  19  20
ENDBRANCH  18  19
ENDBRANCH  17  18
ENDBRANCH  15  17
ENDBRANCH  13  15
ENDBRANCH   3  13
TORSDOF 7
