REMARK  Name = Probucol
REMARK  24 active torsions:
REMARK  status: ('A' for Active; 'I' for Inactive)
REMARK    1  A    between atoms: C_1  and  C_2
REMARK    2  A    between atoms: C_2  and  C_3
REMARK    3  A    between atoms: C_2  and  S_4
REMARK    4  A    between atoms: C_2  and  S_20
REMARK    5  A    between atoms: S_4  and  C_5
REMARK    6  A    between atoms: C_7  and  C_16
REMARK    7  A    between atoms: C_8  and  O_9
REMARK    8  A    between atoms: C_10  and  C_12
REMARK    9  A    between atoms: C_12  and  C_13
REMARK   10  A    between atoms: C_12  and  C_14
REMARK   11  A    between atoms: C_12  and  C_15
REMARK   12  A    between atoms: C_16  and  C_17
REMARK   13  A    between atoms: C_16  and  C_18
REMARK   14  A    between atoms: C_16  and  C_19
REMARK   15  A    between atoms: S_20  and  C_21
REMARK   16  A    between atoms: C_23  and  C_32
REMARK   17  A    between atoms: C_24  and  O_25
REMARK   18  A    between atoms: C_26  and  C_28
REMARK   19  A    between atoms: C_28  and  C_29
REMARK   20  A    between atoms: C_28  and  C_30
REMARK   21  A    between atoms: C_28  and  C_31
REMARK   22  A    between atoms: C_32  and  C_33
REMARK   23  A    between atoms: C_32  and  C_34
REMARK   24  A    between atoms: C_32  and  C_35
REMARK                            x       y       z     vdW  Elec       q    Type
REMARK                         _______ _______ _______ _____ _____    ______ ____
ROOT
ATOM      1  C   UNL     1       1.034   0.119  -0.090  0.00  0.00    +0.000 C 
ATOM      2  C   UNL     1       2.572   0.081  -0.033  0.00  0.00    +0.000 C 
ATOM      3  C   UNL     1       3.160   0.995   1.049  0.00  0.00    +0.000 C 
ENDROOT
BRANCH   2   4
ATOM      4  S   UNL     1       3.077  -1.696   0.071  0.00  0.00    +0.000 S 
BRANCH   4   5
ATOM      5  C   UNL     1       2.547  -2.346   1.639  0.00  0.00    +0.000 A 
ATOM      6  C   UNL     1       1.962  -1.633   2.685  0.00  0.00    +0.000 A 
ATOM      7  C   UNL     1       1.640  -2.189   3.940  0.00  0.00    +0.000 A 
ATOM      8  C   UNL     1       1.854  -3.562   4.068  0.00  0.00    +0.000 A 
ATOM      9  C   UNL     1       2.430  -4.344   3.045  0.00  0.00    +0.000 A 
ATOM     10  C   UNL     1       2.773  -3.707   1.837  0.00  0.00    +0.000 A 
BRANCH   9  11
ATOM     11  C   UNL     1       2.695  -5.858   3.218  0.00  0.00    +0.000 C 
ATOM     12  C   UNL     1       1.878  -6.626   2.166  0.00  0.00    +0.000 C 
ATOM     13  C   UNL     1       4.202  -6.113   3.047  0.00  0.00    +0.000 C 
ATOM     14  C   UNL     1       2.319  -6.480   4.591  0.00  0.00    +0.000 C 
ENDBRANCH   9  11
BRANCH   7  15
ATOM     15  C   UNL     1       1.088  -1.244   5.025  0.00  0.00    +0.000 C 
ATOM     16  C   UNL     1       2.146  -0.168   5.358  0.00  0.00    +0.000 C 
ATOM     17  C   UNL     1      -0.210  -0.580   4.525  0.00  0.00    +0.000 C 
ATOM     18  C   UNL     1       0.735  -1.899   6.368  0.00  0.00    +0.000 C 
ENDBRANCH   7  15
BRANCH   8  19
ATOM     19  O   UNL     1       1.463  -4.287   5.132  0.00  0.00    +0.000 OA
ATOM     20  H   UNL     1       1.239  -3.853   5.956  0.00  0.00    +0.000 HD
ENDBRANCH   8  19
ENDBRANCH   4   5
ENDBRANCH   2   4
BRANCH   2  21
ATOM     21  S   UNL     1       3.136   0.768  -1.699  0.00  0.00    +0.000 S 
BRANCH  21  22
ATOM     22  C   UNL     1       4.927   0.779  -1.594  0.00  0.00    +0.000 A 
ATOM     23  C   UNL     1       5.673  -0.406  -1.626  0.00  0.00    +0.000 A 
ATOM     24  C   UNL     1       7.089  -0.431  -1.616  0.00  0.00    +0.000 A 
ATOM     25  C   UNL     1       7.725   0.816  -1.642  0.00  0.00    +0.000 A 
ATOM     26  C   UNL     1       7.025   2.042  -1.602  0.00  0.00    +0.000 A 
ATOM     27  C   UNL     1       5.613   1.996  -1.584  0.00  0.00    +0.000 A 
BRANCH  26  28
ATOM     28  C   UNL     1       7.772   3.403  -1.588  0.00  0.00    +0.000 C 
ATOM     29  C   UNL     1       7.370   4.205  -2.836  0.00  0.00    +0.000 C 
ATOM     30  C   UNL     1       7.390   4.153  -0.300  0.00  0.00    +0.000 C 
ATOM     31  C   UNL     1       9.330   3.369  -1.595  0.00  0.00    +0.000 C 
ENDBRANCH  26  28
BRANCH  24  32
ATOM     32  C   UNL     1       7.802  -1.799  -1.599  0.00  0.00    +0.000 C 
ATOM     33  C   UNL     1       7.416  -2.553  -0.310  0.00  0.00    +0.000 C 
ATOM     34  C   UNL     1       7.398  -2.607  -2.846  0.00  0.00    +0.000 C 
ATOM     35  C   UNL     1       9.342  -1.772  -1.607  0.00  0.00    +0.000 C 
ENDBRANCH  24  32
BRANCH  25  36
ATOM     36  O   UNL     1       9.055   0.981  -1.794  0.00  0.00    +0.000 OA
ATOM     37  H   UNL     1       9.658   0.258  -1.648  0.00  0.00    +0.000 HD
ENDBRANCH  25  36
ENDBRANCH  21  22
ENDBRANCH   2  21
TORSDOF 10
