REMARK  Name = Probenecid
REMARK  10 active torsions:
REMARK  status: ('A' for Active; 'I' for Inactive)
REMARK    1  A    between atoms: C_1  and  C_2
REMARK    2  A    between atoms: C_2  and  C_3
REMARK    3  A    between atoms: C_3  and  N_4
REMARK    4  A    between atoms: N_4  and  C_5
REMARK    5  A    between atoms: N_4  and  S_8
REMARK    6  A    between atoms: C_5  and  C_6
REMARK    7  A    between atoms: C_6  and  C_7
REMARK    8  A    between atoms: S_8  and  C_11
REMARK    9  A    between atoms: C_14  and  C_17
REMARK   10  A    between atoms: C_17  and  O_18
REMARK                            x       y       z     vdW  Elec       q    Type
REMARK                         _______ _______ _______ _____ _____    ______ ____
ROOT
ATOM      1  S   UNL     1       5.072   3.095  -0.498  0.00  0.00    +0.000 S 
ATOM      2  O   UNL     1       4.698   3.481  -1.846  0.00  0.00    +0.000 OA
ATOM      3  O   UNL     1       4.641   3.874   0.643  0.00  0.00    +0.000 OA
ENDROOT
BRANCH   1   4
ATOM      4  C   UNL     1       6.860   3.074  -0.431  0.00  0.00    +0.000 A 
ATOM      5  C   UNL     1       7.603   1.904  -0.303  0.00  0.00    +0.000 A 
ATOM      6  C   UNL     1       8.994   1.932  -0.202  0.00  0.00    +0.000 A 
ATOM      7  C   UNL     1       9.682   3.141  -0.239  0.00  0.00    +0.000 A 
ATOM      8  C   UNL     1       8.936   4.332  -0.316  0.00  0.00    +0.000 A 
ATOM      9  C   UNL     1       7.533   4.302  -0.421  0.00  0.00    +0.000 A 
BRANCH   7  10
ATOM     10  C   UNL     1      11.176   3.218  -0.220  0.00  0.00    +0.000 C 
ATOM     11  O   UNL     1      11.763   4.277  -0.254  0.00  0.00    +0.000 OA
BRANCH  10  12
ATOM     12  O   UNL     1      11.843   2.039  -0.198  0.00  0.00    +0.000 OA
ATOM     13  H   UNL     1      11.349   1.205  -0.203  0.00  0.00    +0.000 HD
ENDBRANCH  10  12
ENDBRANCH   7  10
ENDBRANCH   1   4
BRANCH   1  14
ATOM     14  N   UNL     1       4.472   1.442  -0.267  0.00  0.00    +0.000 NA
BRANCH  14  15
ATOM     15  C   UNL     1       2.945   1.522  -0.143  0.00  0.00    +0.000 C 
BRANCH  15  17
ATOM     16  C   UNL     1       0.785   0.184   0.234  0.00  0.00    +0.000 C 
ATOM     17  C   UNL     1       2.288   0.202   0.243  0.00  0.00    +0.000 C 
ENDBRANCH  15  17
ENDBRANCH  14  15
BRANCH  14  18
ATOM     18  C   UNL     1       4.884   0.529  -1.398  0.00  0.00    +0.000 C 
BRANCH  18  19
ATOM     19  C   UNL     1       4.653  -0.949  -1.105  0.00  0.00    +0.000 C 
ATOM     20  C   UNL     1       5.188  -1.862  -2.168  0.00  0.00    +0.000 C 
ENDBRANCH  18  19
ENDBRANCH  14  18
ENDBRANCH   1  14
TORSDOF 8
