REMARK  Name = Prochlorperazine
REMARK  5 active torsions:
REMARK  status: ('A' for Active; 'I' for Inactive)
REMARK    1  A    between atoms: C_1  and  N_2
REMARK    2  A    between atoms: N_5  and  C_6
REMARK    3  A    between atoms: C_6  and  C_7
REMARK    4  A    between atoms: C_7  and  C_8
REMARK    5  A    between atoms: C_8  and  N_9
REMARK                            x       y       z     vdW  Elec       q    Type
REMARK                         _______ _______ _______ _____ _____    ______ ____
ROOT
ATOM      1  N   UNL     1      -3.720  -2.552   3.923  0.00  0.00    +0.000 N 
ATOM      2  C   UNL     1      -3.024  -3.773   3.639  0.00  0.00    +0.000 A 
ATOM      3  C   UNL     1      -1.727  -3.805   3.074  0.00  0.00    +0.000 A 
ATOM      4  C   UNL     1      -1.096  -4.980   2.663  0.00  0.00    +0.000 A 
ATOM      5  C   UNL     1      -1.702  -6.201   2.908  0.00  0.00    +0.000 A 
ATOM      6  C   UNL     1      -2.936  -6.221   3.538  0.00  0.00    +0.000 A 
ATOM      7  C   UNL     1      -3.604  -5.033   3.887  0.00  0.00    +0.000 A 
ATOM      8  S   UNL     1      -5.179  -5.266   4.650  0.00  0.00    +0.000 S 
ATOM      9  C   UNL     1      -5.730  -3.603   4.905  0.00  0.00    +0.000 A 
ATOM     10  C   UNL     1      -5.009  -2.451   4.516  0.00  0.00    +0.000 A 
ATOM     11  C   UNL     1      -5.646  -1.218   4.781  0.00  0.00    +0.000 A 
ATOM     12  C   UNL     1      -6.887  -1.132   5.415  0.00  0.00    +0.000 A 
ATOM     13 CL   UNL     1      -7.581   0.412   5.729  0.00  0.00    +0.000 Cl
ATOM     14  C   UNL     1      -7.561  -2.277   5.803  0.00  0.00    +0.000 A 
ATOM     15  C   UNL     1      -6.981  -3.508   5.540  0.00  0.00    +0.000 A 
ENDROOT
BRANCH   1  16
ATOM     16  C   UNL     1      -3.042  -1.306   3.504  0.00  0.00    +0.000 C 
BRANCH  16  17
ATOM     17  C   UNL     1      -2.979  -1.193   1.984  0.00  0.00    +0.000 C 
BRANCH  17  18
ATOM     18  C   UNL     1      -2.126   0.003   1.588  0.00  0.00    +0.000 C 
BRANCH  18  23
ATOM     19  C   UNL     1       2.493   0.010   0.063  0.00  0.00    +0.000 C 
ATOM     20  N   UNL     1       1.087   0.018  -0.301  0.00  0.00    +0.000 NA
ATOM     21  C   UNL     1       0.397   1.217   0.209  0.00  0.00    +0.000 C 
ATOM     22  C   UNL     1      -1.096   1.235  -0.208  0.00  0.00    +0.000 C 
ATOM     23  N   UNL     1      -1.848   0.009   0.147  0.00  0.00    +0.000 NA
ATOM     24  C   UNL     1      -1.063  -1.171  -0.303  0.00  0.00    +0.000 C 
ATOM     25  C   UNL     1       0.397  -1.182   0.191  0.00  0.00    +0.000 C 
ENDBRANCH  18  23
ENDBRANCH  17  18
ENDBRANCH  16  17
ENDBRANCH   1  16
TORSDOF 4
