REMARK  Name = Procaine
REMARK  10 active torsions:
REMARK  status: ('A' for Active; 'I' for Inactive)
REMARK    1  A    between atoms: C_1  and  C_2
REMARK    2  A    between atoms: C_2  and  N_3
REMARK    3  A    between atoms: N_3  and  C_4
REMARK    4  A    between atoms: N_3  and  C_6
REMARK    5  A    between atoms: C_4  and  C_5
REMARK    6  A    between atoms: C_6  and  C_7
REMARK    7  A    between atoms: C_7  and  O_8
REMARK    8  A    between atoms: O_8  and  C_9
REMARK    9  A    between atoms: C_9  and  C_11
REMARK   10  A    between atoms: C_14  and  N_15
REMARK                            x       y       z     vdW  Elec       q    Type
REMARK                         _______ _______ _______ _____ _____    ______ ____
ROOT
ATOM      1  C   UNL     1       7.130   0.468   3.960  0.00  0.00    +0.000 C 
ATOM      2  O   UNL     1       6.523   0.492   5.014  0.00  0.00    +0.000 OA
ENDROOT
BRANCH   1   3
ATOM      3  C   UNL     1       8.616   0.440   3.901  0.00  0.00    +0.000 A 
ATOM      4  C   UNL     1       9.325   1.194   2.965  0.00  0.00    +0.000 A 
ATOM      5  C   UNL     1      10.728   1.195   2.984  0.00  0.00    +0.000 A 
ATOM      6  C   UNL     1      11.439   0.460   3.938  0.00  0.00    +0.000 A 
ATOM      7  C   UNL     1      10.723  -0.295   4.869  0.00  0.00    +0.000 A 
ATOM      8  C   UNL     1       9.320  -0.299   4.861  0.00  0.00    +0.000 A 
BRANCH   6   9
ATOM      9  N   UNL     1      12.822   0.428   3.917  0.00  0.00    +0.000 N 
ATOM     10  H   UNL     1      13.340   1.026   3.287  0.00  0.00    +0.000 HD
ATOM     11  H   UNL     1      13.337  -0.056   4.640  0.00  0.00    +0.000 HD
ENDBRANCH   6   9
ENDBRANCH   1   3
BRANCH   1  12
ATOM     12  O   UNL     1       6.575   0.411   2.711  0.00  0.00    +0.000 OA
BRANCH  12  13
ATOM     13  C   UNL     1       5.131   0.357   2.746  0.00  0.00    +0.000 C 
BRANCH  13  14
ATOM     14  C   UNL     1       4.519   0.167   1.336  0.00  0.00    +0.000 C 
BRANCH  14  15
ATOM     15  N   UNL     1       3.019   0.128   1.298  0.00  0.00    +0.000 NA
BRANCH  15  17
ATOM     16  C   UNL     1       1.068   0.173  -0.353  0.00  0.00    +0.000 C 
ATOM     17  C   UNL     1       2.573   0.041  -0.115  0.00  0.00    +0.000 C 
ENDBRANCH  15  17
BRANCH  15  18
ATOM     18  C   UNL     1       2.526  -0.988   2.134  0.00  0.00    +0.000 C 
ATOM     19  C   UNL     1       1.023  -1.060   2.373  0.00  0.00    +0.000 C 
ENDBRANCH  15  18
ENDBRANCH  14  15
ENDBRANCH  13  14
ENDBRANCH  12  13
ENDBRANCH   1  12
TORSDOF 8
