REMARK  Name = Procyclidine
REMARK  6 active torsions:
REMARK  status: ('A' for Active; 'I' for Inactive)
REMARK    1  A    between atoms: O_1  and  C_2
REMARK    2  A    between atoms: C_2  and  C_3
REMARK    3  A    between atoms: C_2  and  C_10
REMARK    4  A    between atoms: C_2  and  C_16
REMARK    5  A    between atoms: C_3  and  C_4
REMARK    6  A    between atoms: C_4  and  N_5
REMARK                            x       y       z     vdW  Elec       q    Type
REMARK                         _______ _______ _______ _____ _____    ______ ____
ROOT
ATOM      1  C   UNL     1       2.361  -0.118   0.149  0.00  0.00    +0.000 C 
ENDROOT
BRANCH   1   2
ATOM      2  C   UNL     1       2.920   1.340  -0.219  0.00  0.00    +0.000 C 
ATOM      3  C   UNL     1       1.876   2.468  -0.034  0.00  0.00    +0.000 C 
ATOM      4  C   UNL     1       2.470   3.856  -0.244  0.00  0.00    +0.000 C 
ATOM      5  C   UNL     1       3.689   4.069   0.638  0.00  0.00    +0.000 C 
ATOM      6  C   UNL     1       4.786   3.068   0.295  0.00  0.00    +0.000 C 
ATOM      7  C   UNL     1       4.302   1.637   0.422  0.00  0.00    +0.000 C 
ENDBRANCH   1   2
BRANCH   1   8
ATOM      8  C   UNL     1       2.661  -0.544   1.612  0.00  0.00    +0.000 A 
ATOM      9  C   UNL     1       2.889  -1.866   2.038  0.00  0.00    +0.000 A 
ATOM     10  C   UNL     1       3.118  -2.211   3.370  0.00  0.00    +0.000 A 
ATOM     11  C   UNL     1       3.372  -1.237   4.291  0.00  0.00    +0.000 A 
ATOM     12  C   UNL     1       3.219   0.093   3.918  0.00  0.00    +0.000 A 
ATOM     13  C   UNL     1       2.725   0.399   2.644  0.00  0.00    +0.000 A 
ENDBRANCH   1   8
BRANCH   1  14
ATOM     14  O   UNL     1       0.924  -0.103   0.059  0.00  0.00    +0.000 OA
ATOM     15  H   UNL     1       0.678   0.176  -0.839  0.00  0.00    +0.000 HD
ENDBRANCH   1  14
BRANCH   1  16
ATOM     16  C   UNL     1       2.867  -1.070  -0.990  0.00  0.00    +0.000 C 
BRANCH  16  17
ATOM     17  C   UNL     1       2.226  -2.459  -1.006  0.00  0.00    +0.000 C 
BRANCH  17  18
ATOM     18  N   UNL     1       2.876  -3.413  -1.922  0.00  0.00    +0.000 NA
ATOM     19  C   UNL     1       2.004  -4.605  -2.014  0.00  0.00    +0.000 C 
ATOM     20  C   UNL     1       2.394  -5.489  -0.843  0.00  0.00    +0.000 C 
ATOM     21  C   UNL     1       3.898  -5.329  -0.809  0.00  0.00    +0.000 C 
ATOM     22  C   UNL     1       4.149  -3.913  -1.326  0.00  0.00    +0.000 C 
ENDBRANCH  17  18
ENDBRANCH  16  17
ENDBRANCH   1  16
TORSDOF 6
