REMARK  Name = Procaine benzylpenicillin
REMARK  17 active torsions:
REMARK  status: ('A' for Active; 'I' for Inactive)
REMARK    1  A    between atoms: C_1  and  C_2
REMARK    2  A    between atoms: C_2  and  N_3
REMARK    3  A    between atoms: N_3  and  C_4
REMARK    4  A    between atoms: N_3  and  C_6
REMARK    5  A    between atoms: C_4  and  C_5
REMARK    6  A    between atoms: C_6  and  C_7
REMARK    7  A    between atoms: C_7  and  O_8
REMARK    8  A    between atoms: O_8  and  C_9
REMARK    9  A    between atoms: C_9  and  C_11
REMARK   10  A    between atoms: C_14  and  N_15
REMARK   11  A    between atoms: C_21  and  C_22
REMARK   12  A    between atoms: C_21  and  C_23
REMARK   13  A    between atoms: CA_24  and  C_39
REMARK   14  A    between atoms: CA_28  and  N_29
REMARK   15  A    between atoms: C_30  and  C_32
REMARK   16  A    between atoms: C_32  and  C_33
REMARK   17  A    between atoms: C_39  and  O_40
REMARK                            x       y       z     vdW  Elec       q    Type
REMARK                         _______ _______ _______ _____ _____    ______ ____
ROOT
ATOM      1  C   UNL     1       7.152   3.760   2.006  0.00  0.00    +0.000 C 
ATOM      2  O   UNL     1       6.530   4.618   2.600  0.00  0.00    +0.000 OA
ENDROOT
BRANCH   1   3
ATOM      3  C   UNL     1       8.594   3.603   1.949  0.00  0.00    +0.000 A 
ATOM      4  C   UNL     1       9.263   3.241   0.775  0.00  0.00    +0.000 A 
ATOM      5  C   UNL     1      10.653   3.228   0.777  0.00  0.00    +0.000 A 
ATOM      6  C   UNL     1      11.363   3.567   1.932  0.00  0.00    +0.000 A 
ATOM      7  C   UNL     1      10.664   3.889   3.098  0.00  0.00    +0.000 A 
ATOM      8  C   UNL     1       9.279   3.899   3.114  0.00  0.00    +0.000 A 
BRANCH   6   9
ATOM      9  N   UNL     1      12.743   3.568   1.929  0.00  0.00    +0.000 N 
ATOM     10  H   UNL     1      13.255   3.355   1.086  0.00  0.00    +0.000 HD
ATOM     11  H   UNL     1      13.254   3.824   2.762  0.00  0.00    +0.000 HD
ENDBRANCH   6   9
ENDBRANCH   1   3
BRANCH   1  12
ATOM     12  O   UNL     1       6.688   2.725   1.333  0.00  0.00    +0.000 OA
BRANCH  12  13
ATOM     13  C   UNL     1       5.309   2.770   1.348  0.00  0.00    +0.000 C 
BRANCH  13  14
ATOM     14  C   UNL     1       5.057   1.632   0.459  0.00  0.00    +0.000 C 
BRANCH  14  15
ATOM     15  N   UNL     1       3.674   1.678   0.519  0.00  0.00    +0.000 NA
BRANCH  15  17
ATOM     16  C   UNL     1       0.994   0.300  -1.126  0.00  0.00    +0.000 C 
ATOM     17  C   UNL     1       3.050   0.259  -0.773  0.00  0.00    +0.000 C 
ENDBRANCH  15  17
BRANCH  15  18
ATOM     18  C   UNL     1       2.621   1.817   2.195  0.00  0.00    +0.000 C 
ATOM     19  C   UNL     1       0.911   1.562   2.286  0.00  0.00    +0.000 C 
ENDBRANCH  15  18
ENDBRANCH  14  15
ENDBRANCH  13  14
ENDBRANCH  12  13
ENDBRANCH   1  12
TORSDOF 8
REMARK  Name = Procaine benzylpenicillin
REMARK  17 active torsions:
REMARK  status: ('A' for Active; 'I' for Inactive)
REMARK    1  A    between atoms: C_1  and  C_2
REMARK    2  A    between atoms: C_2  and  N_3
REMARK    3  A    between atoms: N_3  and  C_4
REMARK    4  A    between atoms: N_3  and  C_6
REMARK    5  A    between atoms: C_4  and  C_5
REMARK    6  A    between atoms: C_6  and  C_7
REMARK    7  A    between atoms: C_7  and  O_8
REMARK    8  A    between atoms: O_8  and  C_9
REMARK    9  A    between atoms: C_9  and  C_11
REMARK   10  A    between atoms: C_14  and  N_15
REMARK   11  A    between atoms: C_21  and  C_22
REMARK   12  A    between atoms: C_21  and  C_23
REMARK   13  A    between atoms: CA_24  and  C_39
REMARK   14  A    between atoms: CA_28  and  N_29
REMARK   15  A    between atoms: C_30  and  C_32
REMARK   16  A    between atoms: C_32  and  C_33
REMARK   17  A    between atoms: C_39  and  O_40
REMARK                            x       y       z     vdW  Elec       q    Type
REMARK                         _______ _______ _______ _____ _____    ______ ____
ROOT
ATOM      1  C   UNL     2       1.648  -0.693   0.577  0.00  0.00    +0.000 C 
ATOM      2  S   UNL     2       2.145  -2.039  -1.155  0.00  0.00    +0.000 S 
ATOM      3  C   UNL     2       2.925  -2.969   0.145  0.00  0.00    +0.000 C 
ATOM      4  C   UNL     2       3.925  -3.773  -0.612  0.00  0.00    +0.000 C 
ATOM      5  C   UNL     2       1.551  -3.518   0.512  0.00  0.00    +0.000 C 
ATOM      6  CA  UNL     2       3.609  -2.133   1.224  0.00  0.00    +0.000 C 
ATOM      7  N   UNL     2       2.681  -1.064   1.440  0.00  0.00    +0.000 N 
ATOM      8  C   UNL     2       3.312   0.060   1.457  0.00  0.00    +0.000 C 
ATOM      9  O   UNL     2       4.347   0.079   2.130  0.00  0.00    +0.000 OA
ATOM     10  CA  UNL     2       1.947   1.301   0.228  0.00  0.00    +0.000 C 
ENDROOT
BRANCH  10  11
ATOM     11  N   UNL     2       2.794   2.079  -1.495  0.00  0.00    +0.000 N 
ATOM     12  C   UNL     2       3.741   3.176  -1.630  0.00  0.00    +0.000 C 
ATOM     13  O   UNL     2       3.832   4.072  -0.801  0.00  0.00    +0.000 OA
ATOM     14  H   UNL     2       3.240   1.496  -2.245  0.00  0.00    +0.000 HD
BRANCH  12  15
ATOM     15  C   UNL     2       4.647   3.297  -2.964  0.00  0.00    +0.000 C 
BRANCH  15  16
ATOM     16  C   UNL     2       5.324   4.675  -2.982  0.00  0.00    +0.000 A 
ATOM     17  C   UNL     2       6.622   4.873  -2.487  0.00  0.00    +0.000 A 
ATOM     18  C   UNL     2       7.073   6.167  -2.210  0.00  0.00    +0.000 A 
ATOM     19  C   UNL     2       6.297   7.270  -2.563  0.00  0.00    +0.000 A 
ATOM     20  C   UNL     2       5.015   7.084  -3.072  0.00  0.00    +0.000 A 
ATOM     21  C   UNL     2       4.531   5.795  -3.272  0.00  0.00    +0.000 A 
ENDBRANCH  15  16
ENDBRANCH  12  15
ENDBRANCH  10  11
BRANCH   6  22
ATOM     22  C   UNL     2       3.726  -2.577   2.688  0.00  0.00    +0.000 C 
ATOM     23  OXT UNL     2       4.189  -1.928   3.614  0.00  0.00    +0.000 OA
BRANCH  22  24
ATOM     24  O   UNL     2       3.078  -3.717   2.958  0.00  0.00    +0.000 OA
ATOM     25  H   UNL     2       2.957  -4.258   2.171  0.00  0.00    +0.000 HD
ENDBRANCH  22  24
ENDBRANCH   6  22
TORSDOF 5
