REMARK  Name = Procaterol
REMARK  10 active torsions:
REMARK  status: ('A' for Active; 'I' for Inactive)
REMARK    1  A    between atoms: C_1  and  C_2
REMARK    2  A    between atoms: C_2  and  C_3
REMARK    3  A    between atoms: C_3  and  N_4
REMARK    4  A    between atoms: C_3  and  C_8
REMARK    5  A    between atoms: N_4  and  C_5
REMARK    6  A    between atoms: C_5  and  C_6
REMARK    7  A    between atoms: C_5  and  C_7
REMARK    8  A    between atoms: C_8  and  O_9
REMARK    9  A    between atoms: C_8  and  C_10
REMARK   10  A    between atoms: C_13  and  O_14
REMARK                            x       y       z     vdW  Elec       q    Type
REMARK                         _______ _______ _______ _____ _____    ______ ____
ROOT
ATOM      1  C   UNL     1       5.047  -1.087  -2.611  0.00  0.00    +0.000 A 
ATOM      2  C   UNL     1       5.498  -0.224  -3.637  0.00  0.00    +0.000 A 
ATOM      3  C   UNL     1       5.834  -0.709  -4.903  0.00  0.00    +0.000 A 
ATOM      4  C   UNL     1       5.745  -2.073  -5.153  0.00  0.00    +0.000 A 
ATOM      5  C   UNL     1       5.297  -2.942  -4.154  0.00  0.00    +0.000 A 
ATOM      6  C   UNL     1       4.947  -2.467  -2.879  0.00  0.00    +0.000 A 
ATOM      7  C   UNL     1       4.348  -3.436  -1.951  0.00  0.00    +0.000 A 
ATOM      8  C   UNL     1       3.925  -4.625  -2.372  0.00  0.00    +0.000 A 
ATOM      9  C   UNL     1       4.466  -5.185  -3.627  0.00  0.00    +0.000 A 
ATOM     10  O   UNL     1       4.353  -6.368  -3.857  0.00  0.00    +0.000 OA
ATOM     11  N   UNL     1       5.128  -4.304  -4.445  0.00  0.00    +0.000 N 
ATOM     12  H   UNL     1       5.498  -4.660  -5.316  0.00  0.00    +0.000 HD
ENDROOT
BRANCH   4  13
ATOM     13  O   UNL     1       6.027  -2.584  -6.391  0.00  0.00    +0.000 OA
ATOM     14  H   UNL     1       6.300  -1.859  -6.978  0.00  0.00    +0.000 HD
ENDBRANCH   4  13
BRANCH   1  15
ATOM     15  C   UNL     1       4.507  -0.454  -1.334  0.00  0.00    +0.000 C 
BRANCH  15  16
ATOM     16  O   UNL     1       5.163  -1.040  -0.209  0.00  0.00    +0.000 OA
ATOM     17  H   UNL     1       4.657  -1.807   0.088  0.00  0.00    +0.000 HD
ENDBRANCH  15  16
BRANCH  15  18
ATOM     18  C   UNL     1       2.914  -0.486  -1.303  0.00  0.00    +0.000 C 
BRANCH  18  20
ATOM     19  C   UNL     1       0.958  -0.435   0.527  0.00  0.00    +0.000 C 
ATOM     20  C   UNL     1       2.428  -0.108   0.134  0.00  0.00    +0.000 C 
ENDBRANCH  18  20
BRANCH  18  21
ATOM     21  N   UNL     1       2.438   0.348  -2.464  0.00  0.00    +0.000 NA
ATOM     22  H   UNL     1       2.807  -0.073  -3.325  0.00  0.00    +0.000 HD
BRANCH  21  23
ATOM     23  C   UNL     1       0.991   0.496  -2.607  0.00  0.00    +0.000 C 
ATOM     24  C   UNL     1       0.465   1.462  -1.563  0.00  0.00    +0.000 C 
ATOM     25  C   UNL     1       0.543   1.184  -3.888  0.00  0.00    +0.000 C 
ENDBRANCH  21  23
ENDBRANCH  18  21
ENDBRANCH  15  18
ENDBRANCH   1  15
TORSDOF 7
