REMARK  Name = Procarbazine
REMARK  8 active torsions:
REMARK  status: ('A' for Active; 'I' for Inactive)
REMARK    1  A    between atoms: C_1  and  N_2
REMARK    2  A    between atoms: N_2  and  N_3
REMARK    3  A    between atoms: N_3  and  C_4
REMARK    4  A    between atoms: C_4  and  C_5
REMARK    5  A    between atoms: C_8  and  C_11
REMARK    6  A    between atoms: N_13  and  C_14
REMARK    7  A    between atoms: C_14  and  C_15
REMARK    8  A    between atoms: C_14  and  C_16
REMARK                            x       y       z     vdW  Elec       q    Type
REMARK                         _______ _______ _______ _____ _____    ______ ____
ROOT
ATOM      1  C   UNL     1       4.916  -1.611   2.199  0.00  0.00    +0.000 A 
ATOM      2  C   UNL     1       4.858  -3.009   2.183  0.00  0.00    +0.000 A 
ATOM      3  C   UNL     1       5.015  -3.727   3.370  0.00  0.00    +0.000 A 
ATOM      4  C   UNL     1       5.337  -3.072   4.571  0.00  0.00    +0.000 A 
ATOM      5  C   UNL     1       5.446  -1.678   4.571  0.00  0.00    +0.000 A 
ATOM      6  C   UNL     1       5.235  -0.955   3.394  0.00  0.00    +0.000 A 
ENDROOT
BRANCH   4   7
ATOM      7  C   UNL     1       5.585  -3.914   5.781  0.00  0.00    +0.000 C 
ATOM      8  O   UNL     1       5.423  -5.133   5.704  0.00  0.00    +0.000 OA
ATOM      9  N   UNL     1       6.031  -3.294   6.935  0.00  0.00    +0.000 N 
ATOM     10  H   UNL     1       6.136  -2.293   6.972  0.00  0.00    +0.000 HD
BRANCH   9  11
ATOM     11  C   UNL     1       6.387  -4.051   8.132  0.00  0.00    +0.000 C 
ATOM     12  C   UNL     1       7.561  -4.996   7.868  0.00  0.00    +0.000 C 
ATOM     13  C   UNL     1       6.757  -3.113   9.283  0.00  0.00    +0.000 C 
ENDBRANCH   9  11
ENDBRANCH   4   7
BRANCH   1  14
ATOM     14  C   UNL     1       4.451  -0.819   1.000  0.00  0.00    +0.000 C 
BRANCH  14  15
ATOM     15  N   UNL     1       2.979  -0.789   1.008  0.00  0.00    +0.000 NA
ATOM     16  H   UNL     1       2.652  -1.760   0.969  0.00  0.00    +0.000 HD
BRANCH  15  18
ATOM     17  C   UNL     1       1.030  -0.047  -0.086  0.00  0.00    +0.000 C 
ATOM     18  N   UNL     1       2.493  -0.030  -0.123  0.00  0.00    +0.000 NA
ATOM     19  H   UNL     1       2.793   0.947  -0.048  0.00  0.00    +0.000 HD
ENDBRANCH  15  18
ENDBRANCH  14  15
ENDBRANCH   1  14
TORSDOF 5
