REMARK  Name = Procainamide
REMARK  9 active torsions:
REMARK  status: ('A' for Active; 'I' for Inactive)
REMARK    1  A    between atoms: C_1  and  C_2
REMARK    2  A    between atoms: C_2  and  N_3
REMARK    3  A    between atoms: N_3  and  C_4
REMARK    4  A    between atoms: N_3  and  C_6
REMARK    5  A    between atoms: C_4  and  C_5
REMARK    6  A    between atoms: C_6  and  C_7
REMARK    7  A    between atoms: C_7  and  N_8
REMARK    8  A    between atoms: C_9  and  C_11
REMARK    9  A    between atoms: C_14  and  N_15
REMARK                            x       y       z     vdW  Elec       q    Type
REMARK                         _______ _______ _______ _____ _____    ______ ____
ROOT
ATOM      1  N   UNL     1       6.550   2.854  -0.737  0.00  0.00    +0.000 N 
ATOM      2  C   UNL     1       7.202   4.068  -0.907  0.00  0.00    +0.000 C 
ATOM      3  O   UNL     1       6.625   5.134  -1.046  0.00  0.00    +0.000 OA
ATOM      4  H   UNL     1       7.076   2.034  -0.470  0.00  0.00    +0.000 HD
ENDROOT
BRANCH   2   5
ATOM      5  C   UNL     1       8.688   4.032  -0.886  0.00  0.00    +0.000 A 
ATOM      6  C   UNL     1       9.397   3.026  -1.545  0.00  0.00    +0.000 A 
ATOM      7  C   UNL     1      10.797   3.045  -1.545  0.00  0.00    +0.000 A 
ATOM      8  C   UNL     1      11.506   4.071  -0.913  0.00  0.00    +0.000 A 
ATOM      9  C   UNL     1      10.788   5.067  -0.247  0.00  0.00    +0.000 A 
ATOM     10  C   UNL     1       9.387   5.061  -0.244  0.00  0.00    +0.000 A 
BRANCH   8  11
ATOM     11  N   UNL     1      12.889   4.022  -0.831  0.00  0.00    +0.000 N 
ATOM     12  H   UNL     1      13.402   3.378  -1.420  0.00  0.00    +0.000 HD
ATOM     13  H   UNL     1      13.397   4.824  -0.478  0.00  0.00    +0.000 HD
ENDBRANCH   8  11
ENDBRANCH   2   5
BRANCH   1  14
ATOM     14  C   UNL     1       5.097   2.832  -0.674  0.00  0.00    +0.000 C 
BRANCH  14  15
ATOM     15  C   UNL     1       4.488   1.449  -0.349  0.00  0.00    +0.000 C 
BRANCH  15  16
ATOM     16  N   UNL     1       2.993   1.420  -0.304  0.00  0.00    +0.000 NA
BRANCH  16  18
ATOM     17  C   UNL     1       1.047  -0.225  -0.191  0.00  0.00    +0.000 C 
ATOM     18  C   UNL     1       2.549   0.025  -0.080  0.00  0.00    +0.000 C 
ENDBRANCH  16  18
BRANCH  16  19
ATOM     19  C   UNL     1       2.505   2.366   0.722  0.00  0.00    +0.000 C 
ATOM     20  C   UNL     1       1.005   2.616   0.771  0.00  0.00    +0.000 C 
ENDBRANCH  16  19
ENDBRANCH  15  16
ENDBRANCH  14  15
ENDBRANCH   1  14
TORSDOF 7
