REMARK  Name = Proflavine
REMARK  2 active torsions:
REMARK  status: ('A' for Active; 'I' for Inactive)
REMARK    1  A    between atoms: N_1  and  C_2
REMARK    2  A    between atoms: C_10  and  N_11
REMARK                            x       y       z     vdW  Elec       q    Type
REMARK                         _______ _______ _______ _____ _____    ______ ____
ROOT
ATOM      1  C   UNL     1       2.442   0.096  -0.053  0.00  0.00    +0.000 A 
ATOM      2  C   UNL     1       3.188  -1.092  -0.049  0.00  0.00    +0.000 A 
ATOM      3  C   UNL     1       4.582  -1.098  -0.054  0.00  0.00    +0.000 A 
ATOM      4  N   UNL     1       5.273  -2.261  -0.055  0.00  0.00    +0.000 NA
ATOM      5  C   UNL     1       6.625  -2.231  -0.060  0.00  0.00    +0.000 A 
ATOM      6  C   UNL     1       7.335  -1.015  -0.063  0.00  0.00    +0.000 A 
ATOM      7  C   UNL     1       8.732  -0.991  -0.068  0.00  0.00    +0.000 A 
ATOM      8  C   UNL     1       9.447  -2.181  -0.070  0.00  0.00    +0.000 A 
ATOM      9  C   UNL     1       8.778  -3.403  -0.069  0.00  0.00    +0.000 A 
ATOM     10  C   UNL     1       7.376  -3.408  -0.062  0.00  0.00    +0.000 A 
ATOM     11  C   UNL     1       6.619   0.176  -0.061  0.00  0.00    +0.000 A 
ATOM     12  C   UNL     1       5.230   0.152  -0.057  0.00  0.00    +0.000 A 
ATOM     13  C   UNL     1       4.504   1.347  -0.053  0.00  0.00    +0.000 A 
ATOM     14  C   UNL     1       3.115   1.315  -0.046  0.00  0.00    +0.000 A 
ENDROOT
BRANCH   1  15
ATOM     15  N   UNL     1       1.060   0.073  -0.010  0.00  0.00    +0.000 N 
ATOM     16  H   UNL     1       0.558  -0.803  -0.059  0.00  0.00    +0.000 HD
ATOM     17  H   UNL     1       0.532   0.934  -0.056  0.00  0.00    +0.000 HD
ENDBRANCH   1  15
BRANCH   9  18
ATOM     18  N   UNL     1       9.505  -4.579  -0.064  0.00  0.00    +0.000 N 
ATOM     19  H   UNL     1      10.516  -4.554  -0.078  0.00  0.00    +0.000 HD
ATOM     20  H   UNL     1       9.045  -5.478  -0.072  0.00  0.00    +0.000 HD
ENDBRANCH   9  18
TORSDOF 2
