REMARK  Name = Proguanil
REMARK  4 active torsions:
REMARK  status: ('A' for Active; 'I' for Inactive)
REMARK    1  A    between atoms: C_1  and  C_2
REMARK    2  A    between atoms: C_2  and  C_3
REMARK    3  A    between atoms: C_2  and  N_4
REMARK    4  A    between atoms: N_10  and  C_11
REMARK                            x       y       z     vdW  Elec       q    Type
REMARK                         _______ _______ _______ _____ _____    ______ ____
ROOT
ATOM      1  N   UNL     1       3.141  -0.774  -1.097  0.00  0.00    +0.000 N 
ATOM      2  C   UNL     1       4.500  -0.811  -1.326  0.00  0.00    +0.000 C 
ATOM      3  N   UNL     1       5.331  -0.158  -0.582  0.00  0.00    +0.000 NA
ATOM      4  N   UNL     1       5.023  -1.583  -2.360  0.00  0.00    +0.000 N 
ATOM      5  C   UNL     1       6.382  -1.766  -2.635  0.00  0.00    +0.000 C 
ATOM      6  N   UNL     1       7.285  -1.211  -1.878  0.00  0.00    +0.000 NA
ATOM      7  N   UNL     1       6.784  -2.534  -3.716  0.00  0.00    +0.000 N 
ATOM      8  H   UNL     1       2.497  -1.174  -1.764  0.00  0.00    +0.000 HD
ATOM      9  H   UNL     1       4.861   0.388   0.134  0.00  0.00    +0.000 HD
ATOM     10  H   UNL     1       4.369  -2.030  -2.975  0.00  0.00    +0.000 HD
ATOM     11  H   UNL     1       6.757  -0.691  -1.147  0.00  0.00    +0.000 HD
ATOM     12  H   UNL     1       6.141  -2.792  -4.446  0.00  0.00    +0.000 HD
ENDROOT
BRANCH   7  13
ATOM     13  C   UNL     1       8.162  -2.788  -4.005  0.00  0.00    +0.000 A 
ATOM     14  C   UNL     1       9.075  -3.076  -2.972  0.00  0.00    +0.000 A 
ATOM     15  C   UNL     1      10.453  -3.184  -3.193  0.00  0.00    +0.000 A 
ATOM     16  C   UNL     1      10.954  -3.005  -4.473  0.00  0.00    +0.000 A 
ATOM     17 CL   UNL     1      12.651  -3.111  -4.748  0.00  0.00    +0.000 Cl
ATOM     18  C   UNL     1      10.082  -2.730  -5.526  0.00  0.00    +0.000 A 
ATOM     19  C   UNL     1       8.694  -2.619  -5.294  0.00  0.00    +0.000 A 
ENDBRANCH   7  13
BRANCH   1  21
ATOM     20  C   UNL     1       1.001   0.026  -0.045  0.00  0.00    +0.000 C 
ATOM     21  C   UNL     1       2.530  -0.006   0.013  0.00  0.00    +0.000 C 
ATOM     22  C   UNL     1       2.929  -0.599   1.372  0.00  0.00    +0.000 C 
ENDBRANCH   1  21
TORSDOF 2
