REMARK  Name = Progesterone
REMARK  4 active torsions:
REMARK  status: ('A' for Active; 'I' for Inactive)
REMARK    1  A    between atoms: C_5  and  C_6
REMARK    2  A    between atoms: C_6  and  C_7
REMARK    3  A    between atoms: C_9  and  C_10
REMARK    4  A    between atoms: C_25  and  C_26
REMARK                            x       y       z     vdW  Elec       q    Type
REMARK                         _______ _______ _______ _____ _____    ______ ____
ROOT
ATOM      1  C   UNL     1       2.079  -0.050  -0.057  0.00  0.00    +0.000 C 
ATOM      2  C   UNL     1       2.557   1.356   0.244  0.00  0.00    +0.000 C 
ATOM      3  C   UNL     1       2.648   1.396   1.768  0.00  0.00    +0.000 C 
ATOM      4  C   UNL     1       2.501  -0.054   2.284  0.00  0.00    +0.000 C 
ATOM      5  C   UNL     1       2.756  -0.923   1.020  0.00  0.00    +0.000 C 
ATOM      6  C   UNL     1       4.280  -1.117   0.829  0.00  0.00    +0.000 C 
ATOM      7  C   UNL     1       2.045  -2.287   0.973  0.00  0.00    +0.000 C 
ATOM      8  C   UNL     1       2.136  -2.931  -0.429  0.00  0.00    +0.000 C 
ATOM      9  C   UNL     1       1.703  -2.003  -1.597  0.00  0.00    +0.000 C 
ATOM     10  C   UNL     1       2.301  -0.573  -1.474  0.00  0.00    +0.000 C 
ATOM     11  C   UNL     1       1.657   0.359  -2.507  0.00  0.00    +0.000 C 
ATOM     12  C   UNL     1       1.777  -0.168  -3.929  0.00  0.00    +0.000 C 
ATOM     13  C   UNL     1       1.372  -1.616  -4.066  0.00  0.00    +0.000 C 
ATOM     14  C   UNL     1       0.563  -1.977  -5.077  0.00  0.00    +0.000 C 
ATOM     15  C   UNL     1       0.309  -3.403  -5.388  0.00  0.00    +0.000 C 
ATOM     16  O   UNL     1      -0.427  -3.696  -6.324  0.00  0.00    +0.000 OA
ATOM     17  C   UNL     1       1.082  -4.434  -4.608  0.00  0.00    +0.000 C 
ATOM     18  C   UNL     1       1.241  -3.976  -3.163  0.00  0.00    +0.000 C 
ATOM     19  C   UNL     1       1.952  -2.599  -3.037  0.00  0.00    +0.000 C 
ATOM     20  C   UNL     1       3.459  -2.790  -3.324  0.00  0.00    +0.000 C 
ENDROOT
BRANCH   4  21
ATOM     21  C   UNL     1       3.367  -0.439   3.489  0.00  0.00    +0.000 C 
ATOM     22  C   UNL     1       4.381   0.519   4.067  0.00  0.00    +0.000 C 
ATOM     23  O   UNL     1       3.265  -1.568   3.982  0.00  0.00    +0.000 OA
ENDBRANCH   4  21
TORSDOF 1
