REMARK  Name = Promethazine
REMARK  6 active torsions:
REMARK  status: ('A' for Active; 'I' for Inactive)
REMARK    1  A    between atoms: C_1  and  C_2
REMARK    2  A    between atoms: C_2  and  C_3
REMARK    3  A    between atoms: C_2  and  N_18
REMARK    4  A    between atoms: C_3  and  N_4
REMARK    5  A    between atoms: N_18  and  C_19
REMARK    6  A    between atoms: N_18  and  C_20
REMARK                            x       y       z     vdW  Elec       q    Type
REMARK                         _______ _______ _______ _____ _____    ______ ____
ROOT
ATOM      1  N   UNL     1       2.388  -2.427  -0.016  0.00  0.00    +0.000 N 
ATOM      2  C   UNL     1       2.914  -2.844   1.233  0.00  0.00    +0.000 A 
ATOM      3  C   UNL     1       3.127  -1.946   2.296  0.00  0.00    +0.000 A 
ATOM      4  C   UNL     1       3.470  -2.367   3.584  0.00  0.00    +0.000 A 
ATOM      5  C   UNL     1       3.617  -3.713   3.848  0.00  0.00    +0.000 A 
ATOM      6  C   UNL     1       3.432  -4.636   2.821  0.00  0.00    +0.000 A 
ATOM      7  C   UNL     1       3.077  -4.210   1.528  0.00  0.00    +0.000 A 
ATOM      8  S   UNL     1       2.798  -5.470   0.289  0.00  0.00    +0.000 S 
ATOM      9  C   UNL     1       1.543  -4.644  -0.676  0.00  0.00    +0.000 A 
ATOM     10  C   UNL     1       0.579  -5.428  -1.331  0.00  0.00    +0.000 A 
ATOM     11  C   UNL     1      -0.440  -4.826  -2.071  0.00  0.00    +0.000 A 
ATOM     12  C   UNL     1      -0.482  -3.452  -2.192  0.00  0.00    +0.000 A 
ATOM     13  C   UNL     1       0.506  -2.678  -1.585  0.00  0.00    +0.000 A 
ATOM     14  C   UNL     1       1.518  -3.247  -0.787  0.00  0.00    +0.000 A 
ENDROOT
BRANCH   1  15
ATOM     15  C   UNL     1       2.965  -1.252  -0.712  0.00  0.00    +0.000 C 
BRANCH  15  17
ATOM     16  C   UNL     1       0.952   0.158  -0.037  0.00  0.00    +0.000 C 
ATOM     17  C   UNL     1       2.486   0.120  -0.146  0.00  0.00    +0.000 C 
BRANCH  17  18
ATOM     18  N   UNL     1       3.025   1.312  -0.864  0.00  0.00    +0.000 NA
ATOM     19  C   UNL     1       2.576   2.540  -0.187  0.00  0.00    +0.000 C 
ATOM     20  C   UNL     1       4.498   1.300  -0.849  0.00  0.00    +0.000 C 
ENDBRANCH  17  18
ENDBRANCH  15  17
ENDBRANCH   1  15
TORSDOF 3
