REMARK  Name = Proparacaine
REMARK  14 active torsions:
REMARK  status: ('A' for Active; 'I' for Inactive)
REMARK    1  A    between atoms: C_1  and  C_2
REMARK    2  A    between atoms: C_2  and  C_3
REMARK    3  A    between atoms: C_3  and  O_4
REMARK    4  A    between atoms: O_4  and  C_5
REMARK    5  A    between atoms: C_6  and  N_7
REMARK    6  A    between atoms: C_9  and  C_12
REMARK    7  A    between atoms: C_12  and  O_14
REMARK    8  A    between atoms: O_14  and  C_15
REMARK    9  A    between atoms: C_15  and  C_16
REMARK   10  A    between atoms: C_16  and  N_17
REMARK   11  A    between atoms: N_17  and  C_18
REMARK   12  A    between atoms: N_17  and  C_20
REMARK   13  A    between atoms: C_18  and  C_19
REMARK   14  A    between atoms: C_20  and  C_21
REMARK                            x       y       z     vdW  Elec       q    Type
REMARK                         _______ _______ _______ _____ _____    ______ ____
ROOT
ATOM      1  C   UNL     1       5.051  -1.811   1.819  0.00  0.00    +0.000 A 
ATOM      2  C   UNL     1       4.739  -3.170   2.025  0.00  0.00    +0.000 A 
ATOM      3  C   UNL     1       5.564  -3.923   2.882  0.00  0.00    +0.000 A 
ATOM      4  C   UNL     1       6.698  -3.366   3.495  0.00  0.00    +0.000 A 
ATOM      5  C   UNL     1       7.028  -2.038   3.242  0.00  0.00    +0.000 A 
ATOM      6  C   UNL     1       6.210  -1.270   2.409  0.00  0.00    +0.000 A 
ENDROOT
BRANCH   2   7
ATOM      7  N   UNL     1       3.550  -3.771   1.581  0.00  0.00    +0.000 N 
ATOM      8  H   UNL     1       3.224  -3.438   0.683  0.00  0.00    +0.000 HD
ATOM      9  H   UNL     1       3.515  -4.783   1.632  0.00  0.00    +0.000 HD
ENDBRANCH   2   7
BRANCH   4  10
ATOM     10  C   UNL     1       7.511  -4.216   4.402  0.00  0.00    +0.000 C 
ATOM     11  O   UNL     1       7.329  -5.414   4.510  0.00  0.00    +0.000 OA
BRANCH  10  12
ATOM     12  O   UNL     1       8.472  -3.480   5.058  0.00  0.00    +0.000 OA
BRANCH  12  13
ATOM     13  C   UNL     1       9.366  -4.346   5.765  0.00  0.00    +0.000 C 
BRANCH  13  14
ATOM     14  C   UNL     1      10.662  -3.701   6.290  0.00  0.00    +0.000 C 
BRANCH  14  15
ATOM     15  N   UNL     1      11.536  -4.610   7.094  0.00  0.00    +0.000 NA
BRANCH  15  16
ATOM     16  C   UNL     1      12.064  -5.765   6.330  0.00  0.00    +0.000 C 
ATOM     17  C   UNL     1      11.064  -6.810   5.854  0.00  0.00    +0.000 C 
ENDBRANCH  15  16
BRANCH  15  18
ATOM     18  C   UNL     1      12.668  -3.824   7.657  0.00  0.00    +0.000 C 
ATOM     19  C   UNL     1      13.575  -4.627   8.595  0.00  0.00    +0.000 C 
ENDBRANCH  15  18
ENDBRANCH  14  15
ENDBRANCH  13  14
ENDBRANCH  12  13
ENDBRANCH  10  12
ENDBRANCH   4  10
BRANCH   1  20
ATOM     20  O   UNL     1       4.404  -0.947   0.965  0.00  0.00    +0.000 OA
BRANCH  20  21
ATOM     21  C   UNL     1       2.980  -0.887   1.035  0.00  0.00    +0.000 C 
BRANCH  21  23
ATOM     22  C   UNL     1       0.944   0.102  -0.031  0.00  0.00    +0.000 C 
ATOM     23  C   UNL     1       2.466   0.113   0.001  0.00  0.00    +0.000 C 
ENDBRANCH  21  23
ENDBRANCH  20  21
ENDBRANCH   1  20
TORSDOF 11
