REMARK  Name = Propylparaben
REMARK  6 active torsions:
REMARK  status: ('A' for Active; 'I' for Inactive)
REMARK    1  A    between atoms: C_1  and  C_2
REMARK    2  A    between atoms: C_2  and  C_3
REMARK    3  A    between atoms: C_3  and  O_4
REMARK    4  A    between atoms: O_4  and  C_5
REMARK    5  A    between atoms: C_5  and  C_7
REMARK    6  A    between atoms: C_10  and  O_11
REMARK                            x       y       z     vdW  Elec       q    Type
REMARK                         _______ _______ _______ _____ _____    ______ ____
ROOT
ATOM      1  C   UNL     1       6.651  -2.480  -0.980  0.00  0.00    +0.000 A 
ATOM      2  C   UNL     1       7.375  -2.034   0.134  0.00  0.00    +0.000 A 
ATOM      3  C   UNL     1       8.782  -2.073   0.129  0.00  0.00    +0.000 A 
ATOM      4  C   UNL     1       9.456  -2.551  -0.993  0.00  0.00    +0.000 A 
ATOM      5  C   UNL     1       8.748  -2.989  -2.105  0.00  0.00    +0.000 A 
ATOM      6  C   UNL     1       7.349  -2.966  -2.097  0.00  0.00    +0.000 A 
ENDROOT
BRANCH   1   7
ATOM      7  C   UNL     1       5.163  -2.542  -0.988  0.00  0.00    +0.000 C 
ATOM      8  O   UNL     1       4.555  -3.496  -1.460  0.00  0.00    +0.000 OA
BRANCH   7   9
ATOM      9  O   UNL     1       4.593  -1.419  -0.468  0.00  0.00    +0.000 OA
BRANCH   9  10
ATOM     10  C   UNL     1       3.147  -1.425  -0.508  0.00  0.00    +0.000 C 
BRANCH  10  12
ATOM     11  C   UNL     1       1.070  -0.085   0.048  0.00  0.00    +0.000 C 
ATOM     12  C   UNL     1       2.594  -0.107   0.042  0.00  0.00    +0.000 C 
ENDBRANCH  10  12
ENDBRANCH   9  10
ENDBRANCH   7   9
ENDBRANCH   1   7
BRANCH   4  13
ATOM     13  O   UNL     1      10.817  -2.621  -1.055  0.00  0.00    +0.000 OA
ATOM     14  H   UNL     1      11.204  -2.318  -0.217  0.00  0.00    +0.000 HD
ENDBRANCH   4  13
TORSDOF 5
