REMARK  Name = Propanoic acid
REMARK  3 active torsions:
REMARK  status: ('A' for Active; 'I' for Inactive)
REMARK    1  A    between atoms: C_1  and  C_2
REMARK    2  A    between atoms: C_2  and  C_3
REMARK    3  A    between atoms: C_3  and  O_4
REMARK                            x       y       z     vdW  Elec       q    Type
REMARK                         _______ _______ _______ _____ _____    ______ ____
ROOT
ATOM      1  C   UNL     1       3.009  -0.955  -1.099  0.00  0.00    +0.000 C 
ATOM      2  O   UNL     1       4.219  -1.077  -1.255  0.00  0.00    +0.000 OA
ENDROOT
BRANCH   1   4
ATOM      3  C   UNL     1       0.914  -0.042   0.072  0.00  0.00    +0.000 C 
ATOM      4  C   UNL     1       2.428  -0.096   0.002  0.00  0.00    +0.000 C 
ENDBRANCH   1   4
BRANCH   1   5
ATOM      5  O   UNL     1       2.141  -1.588  -1.911  0.00  0.00    +0.000 OA
ATOM      6  H   UNL     1       1.191  -1.457  -1.742  0.00  0.00    +0.000 HD
ENDBRANCH   1   5
TORSDOF 2
