REMARK  Name = Propantheline
REMARK  12 active torsions:
REMARK  status: ('A' for Active; 'I' for Inactive)
REMARK    1  A    between atoms: C_1  and  C_2
REMARK    2  A    between atoms: C_2  and  C_3
REMARK    3  A    between atoms: C_2  and  N_4
REMARK    4  A    between atoms: N_4  and  C_5
REMARK    5  A    between atoms: N_4  and  C_6
REMARK    6  A    between atoms: N_4  and  C_25
REMARK    7  A    between atoms: C_6  and  C_7
REMARK    8  A    between atoms: C_7  and  O_8
REMARK    9  A    between atoms: O_8  and  C_9
REMARK   10  A    between atoms: C_9  and  C_11
REMARK   11  A    between atoms: C_25  and  C_26
REMARK   12  A    between atoms: C_25  and  C_27
REMARK                            x       y       z     vdW  Elec       q    Type
REMARK                         _______ _______ _______ _____ _____    ______ ____
ROOT
ATOM      1  C   UNL     1      -1.458   2.865  -4.482  0.00  0.00    +0.000 C 
ATOM      2  C   UNL     1      -0.684   4.168  -4.351  0.00  0.00    +0.000 A 
ATOM      3  C   UNL     1       0.715   4.228  -4.503  0.00  0.00    +0.000 A 
ATOM      4  C   UNL     1       1.414   5.426  -4.361  0.00  0.00    +0.000 A 
ATOM      5  C   UNL     1       0.720   6.603  -4.119  0.00  0.00    +0.000 A 
ATOM      6  C   UNL     1      -0.667   6.574  -4.009  0.00  0.00    +0.000 A 
ATOM      7  C   UNL     1      -1.363   5.365  -4.115  0.00  0.00    +0.000 A 
ATOM      8  O   UNL     1      -2.723   5.463  -3.979  0.00  0.00    +0.000 OA
ATOM      9  C   UNL     1      -3.478   4.321  -4.033  0.00  0.00    +0.000 A 
ATOM     10  C   UNL     1      -4.847   4.492  -3.811  0.00  0.00    +0.000 A 
ATOM     11  C   UNL     1      -5.705   3.394  -3.826  0.00  0.00    +0.000 A 
ATOM     12  C   UNL     1      -5.197   2.123  -4.073  0.00  0.00    +0.000 A 
ATOM     13  C   UNL     1      -3.835   1.957  -4.316  0.00  0.00    +0.000 A 
ATOM     14  C   UNL     1      -2.952   3.054  -4.281  0.00  0.00    +0.000 A 
ENDROOT
BRANCH   1  15
ATOM     15  C   UNL     1      -0.933   1.773  -3.545  0.00  0.00    +0.000 C 
ATOM     16  O   UNL     1      -1.595   1.131  -2.743  0.00  0.00    +0.000 OA
BRANCH  15  17
ATOM     17  O   UNL     1       0.421   1.546  -3.715  0.00  0.00    +0.000 OA
BRANCH  17  18
ATOM     18  C   UNL     1       0.879   0.751  -2.634  0.00  0.00    +0.000 C 
BRANCH  18  19
ATOM     19  C   UNL     1       2.388   0.705  -2.448  0.00  0.00    +0.000 C 
BRANCH  19  20
ATOM     20  N   UNL     1       2.889  -0.384  -1.379  0.00  0.00    +0.000 N 
ATOM     21  C   UNL     1       2.386  -1.764  -1.817  0.00  0.00    +0.000 C 
BRANCH  20  23
ATOM     22  C   UNL     1       0.838   0.017   0.242  0.00  0.00    +0.000 C 
ATOM     23  C   UNL     1       2.365   0.012   0.091  0.00  0.00    +0.000 C 
ATOM     24  C   UNL     1       2.796  -0.965   1.186  0.00  0.00    +0.000 C 
ENDBRANCH  20  23
BRANCH  20  25
ATOM     25  C   UNL     1       4.500  -0.345  -1.441  0.00  0.00    +0.000 C 
ATOM     26  C   UNL     1       5.192  -1.369  -0.535  0.00  0.00    +0.000 C 
ATOM     27  C   UNL     1       5.021  -0.638  -2.857  0.00  0.00    +0.000 C 
ENDBRANCH  20  25
ENDBRANCH  19  20
ENDBRANCH  18  19
ENDBRANCH  17  18
ENDBRANCH  15  17
ENDBRANCH   1  15
TORSDOF 7
