REMARK  Name = Propiolactone
REMARK  0 active torsions:
REMARK  status: ('A' for Active; 'I' for Inactive)
REMARK                            x       y       z     vdW  Elec       q    Type
REMARK                         _______ _______ _______ _____ _____    ______ ____
ROOT
ATOM      1  O   UNL     1      -1.657   0.052  -0.016  0.00  0.00    +0.000 OA
ATOM      2  C   UNL     1      -0.450   0.107  -0.002  0.00  0.00    +0.000 C 
ATOM      3  C   UNL     1       0.635   1.196   0.052  0.00  0.00    +0.000 C 
ATOM      4  C   UNL     1       1.576  -0.005   0.027  0.00  0.00    +0.000 C 
ATOM      5  O   UNL     1       0.445  -0.914  -0.026  0.00  0.00    +0.000 OA
ENDROOT
TORSDOF 0
