REMARK  Name = Propoxycaine
REMARK  14 active torsions:
REMARK  status: ('A' for Active; 'I' for Inactive)
REMARK    1  A    between atoms: C_1  and  C_2
REMARK    2  A    between atoms: C_2  and  C_3
REMARK    3  A    between atoms: C_3  and  O_4
REMARK    4  A    between atoms: O_4  and  C_5
REMARK    5  A    between atoms: C_7  and  N_8
REMARK    6  A    between atoms: C_11  and  C_12
REMARK    7  A    between atoms: C_12  and  O_14
REMARK    8  A    between atoms: O_14  and  C_15
REMARK    9  A    between atoms: C_15  and  C_16
REMARK   10  A    between atoms: C_16  and  N_17
REMARK   11  A    between atoms: N_17  and  C_18
REMARK   12  A    between atoms: N_17  and  C_20
REMARK   13  A    between atoms: C_18  and  C_19
REMARK   14  A    between atoms: C_20  and  C_21
REMARK                            x       y       z     vdW  Elec       q    Type
REMARK                         _______ _______ _______ _____ _____    ______ ____
ROOT
ATOM      1  C   UNL     1       5.163  -1.191   2.246  0.00  0.00    +0.000 A 
ATOM      2  C   UNL     1       4.831  -2.427   2.808  0.00  0.00    +0.000 A 
ATOM      3  C   UNL     1       5.635  -3.017   3.788  0.00  0.00    +0.000 A 
ATOM      4  C   UNL     1       6.779  -2.348   4.223  0.00  0.00    +0.000 A 
ATOM      5  C   UNL     1       7.109  -1.098   3.694  0.00  0.00    +0.000 A 
ATOM      6  C   UNL     1       6.291  -0.506   2.715  0.00  0.00    +0.000 A 
ENDROOT
BRANCH   3   7
ATOM      7  N   UNL     1       5.287  -4.239   4.330  0.00  0.00    +0.000 N 
ATOM      8  H   UNL     1       4.486  -4.746   3.979  0.00  0.00    +0.000 HD
ATOM      9  H   UNL     1       5.888  -4.696   5.001  0.00  0.00    +0.000 HD
ENDBRANCH   3   7
BRANCH   6  10
ATOM     10  C   UNL     1       6.670   0.846   2.234  0.00  0.00    +0.000 C 
ATOM     11  O   UNL     1       7.740   1.361   2.509  0.00  0.00    +0.000 OA
BRANCH  10  12
ATOM     12  O   UNL     1       5.676   1.416   1.482  0.00  0.00    +0.000 OA
BRANCH  12  13
ATOM     13  C   UNL     1       6.140   2.573   0.800  0.00  0.00    +0.000 C 
BRANCH  13  14
ATOM     14  C   UNL     1       5.260   3.062  -0.363  0.00  0.00    +0.000 C 
BRANCH  14  15
ATOM     15  N   UNL     1       5.706   4.353  -0.965  0.00  0.00    +0.000 NA
BRANCH  15  16
ATOM     16  C   UNL     1       7.045   4.284  -1.595  0.00  0.00    +0.000 C 
ATOM     17  C   UNL     1       8.243   4.047  -0.684  0.00  0.00    +0.000 C 
ENDBRANCH  15  16
BRANCH  15  18
ATOM     18  C   UNL     1       4.701   4.797  -1.966  0.00  0.00    +0.000 C 
ATOM     19  C   UNL     1       4.999   6.176  -2.564  0.00  0.00    +0.000 C 
ENDBRANCH  15  18
ENDBRANCH  14  15
ENDBRANCH  13  14
ENDBRANCH  12  13
ENDBRANCH  10  12
ENDBRANCH   6  10
BRANCH   1  20
ATOM     20  O   UNL     1       4.507  -0.726   1.136  0.00  0.00    +0.000 OA
BRANCH  20  21
ATOM     21  C   UNL     1       3.085  -0.669   1.226  0.00  0.00    +0.000 C 
BRANCH  21  23
ATOM     22  C   UNL     1       1.053   0.053  -0.063  0.00  0.00    +0.000 C 
ATOM     23  C   UNL     1       2.570   0.029  -0.032  0.00  0.00    +0.000 C 
ENDBRANCH  21  23
ENDBRANCH  20  21
ENDBRANCH   1  20
TORSDOF 11
