REMARK  Name = Propylhexedrine
REMARK  5 active torsions:
REMARK  status: ('A' for Active; 'I' for Inactive)
REMARK    1  A    between atoms: C_1  and  N_2
REMARK    2  A    between atoms: N_2  and  C_3
REMARK    3  A    between atoms: C_3  and  C_4
REMARK    4  A    between atoms: C_3  and  C_5
REMARK    5  A    between atoms: C_5  and  C_6
REMARK                            x       y       z     vdW  Elec       q    Type
REMARK                         _______ _______ _______ _____ _____    ______ ____
ROOT
ATOM      1  C   UNL     1       4.406   1.089   0.967  0.00  0.00    +0.000 C 
ENDROOT
BRANCH   1   2
ATOM      2  C   UNL     1       5.005   2.219   1.865  0.00  0.00    +0.000 C 
ATOM      3  C   UNL     1       4.847   3.612   1.229  0.00  0.00    +0.000 C 
ATOM      4  C   UNL     1       5.133   4.750   2.220  0.00  0.00    +0.000 C 
ATOM      5  C   UNL     1       4.328   4.630   3.513  0.00  0.00    +0.000 C 
ATOM      6  C   UNL     1       4.633   3.308   4.199  0.00  0.00    +0.000 C 
ATOM      7  C   UNL     1       4.322   2.207   3.223  0.00  0.00    +0.000 C 
ENDBRANCH   1   2
BRANCH   1   8
ATOM      8  C   UNL     1       2.842   0.962   0.969  0.00  0.00    +0.000 C 
ATOM      9  C   UNL     1       2.221   0.401   2.275  0.00  0.00    +0.000 C 
BRANCH   8  11
ATOM     10  C   UNL     1       0.966   0.017  -0.266  0.00  0.00    +0.000 C 
ATOM     11  N   UNL     1       2.417   0.049  -0.110  0.00  0.00    +0.000 NA
ATOM     12  H   UNL     1       2.837   0.349  -1.001  0.00  0.00    +0.000 HD
ENDBRANCH   8  11
ENDBRANCH   1   8
TORSDOF 3
