REMARK  Name = Propylene glycol
REMARK  4 active torsions:
REMARK  status: ('A' for Active; 'I' for Inactive)
REMARK    1  A    between atoms: C_1  and  C_2
REMARK    2  A    between atoms: C_2  and  O_3
REMARK    3  A    between atoms: C_2  and  C_4
REMARK    4  A    between atoms: C_4  and  O_5
REMARK                            x       y       z     vdW  Elec       q    Type
REMARK                         _______ _______ _______ _____ _____    ______ ____
ROOT
ATOM      1  C   UNL     1       0.902  -0.048  -0.026  0.00  0.00    +0.000 C 
ATOM      2  C   UNL     1       2.422  -0.056  -0.007  0.00  0.00    +0.000 C 
ENDROOT
BRANCH   2   3
ATOM      3  O   UNL     1       2.878   1.242   0.378  0.00  0.00    +0.000 OA
ATOM      4  H   UNL     1       2.670   1.367   1.319  0.00  0.00    +0.000 HD
ENDBRANCH   2   3
BRANCH   2   5
ATOM      5  C   UNL     1       2.952  -1.135   0.949  0.00  0.00    +0.000 C 
BRANCH   5   6
ATOM      6  O   UNL     1       4.377  -1.176   0.966  0.00  0.00    +0.000 OA
ATOM      7  H   UNL     1       4.684  -1.210   0.046  0.00  0.00    +0.000 HD
ENDBRANCH   5   6
ENDBRANCH   2   5
TORSDOF 3
