REMARK  Name = Propiomazine
REMARK  9 active torsions:
REMARK  status: ('A' for Active; 'I' for Inactive)
REMARK    1  A    between atoms: C_1  and  C_2
REMARK    2  A    between atoms: C_2  and  C_3
REMARK    3  A    between atoms: C_3  and  C_5
REMARK    4  A    between atoms: N_16  and  C_17
REMARK    5  A    between atoms: C_17  and  C_18
REMARK    6  A    between atoms: C_18  and  C_19
REMARK    7  A    between atoms: C_18  and  N_20
REMARK    8  A    between atoms: N_20  and  C_21
REMARK    9  A    between atoms: N_20  and  C_22
REMARK                            x       y       z     vdW  Elec       q    Type
REMARK                         _______ _______ _______ _____ _____    ______ ____
ROOT
ATOM      1  C   UNL     1       4.538  -1.480  -0.742  0.00  0.00    +0.000 A 
ATOM      2  C   UNL     1       5.385  -1.220   0.337  0.00  0.00    +0.000 A 
ATOM      3  C   UNL     1       6.761  -1.454   0.221  0.00  0.00    +0.000 A 
ATOM      4  C   UNL     1       7.276  -1.926  -1.006  0.00  0.00    +0.000 A 
ATOM      5  S   UNL     1       9.017  -2.279  -1.193  0.00  0.00    +0.000 S 
ATOM      6  C   UNL     1       9.352  -2.833   0.474  0.00  0.00    +0.000 A 
ATOM      7  C   UNL     1      10.399  -3.733   0.688  0.00  0.00    +0.000 A 
ATOM      8  C   UNL     1      10.723  -4.139   1.983  0.00  0.00    +0.000 A 
ATOM      9  C   UNL     1       9.988  -3.672   3.064  0.00  0.00    +0.000 A 
ATOM     10  C   UNL     1       8.902  -2.834   2.844  0.00  0.00    +0.000 A 
ATOM     11  C   UNL     1       8.603  -2.343   1.564  0.00  0.00    +0.000 A 
ATOM     12  N   UNL     1       7.576  -1.404   1.380  0.00  0.00    +0.000 N 
ATOM     13  C   UNL     1       6.424  -2.177  -2.083  0.00  0.00    +0.000 A 
ATOM     14  C   UNL     1       5.054  -1.968  -1.946  0.00  0.00    +0.000 A 
ENDROOT
BRANCH   1  15
ATOM     15  C   UNL     1       3.077  -1.309  -0.610  0.00  0.00    +0.000 C 
ATOM     16  O   UNL     1       2.335  -2.162  -1.103  0.00  0.00    +0.000 OA
BRANCH  15  18
ATOM     17  C   UNL     1       1.053  -0.014   0.087  0.00  0.00    +0.000 C 
ATOM     18  C   UNL     1       2.571  -0.056   0.076  0.00  0.00    +0.000 C 
ENDBRANCH  15  18
ENDBRANCH   1  15
BRANCH  12  19
ATOM     19  C   UNL     1       7.591  -0.080   2.075  0.00  0.00    +0.000 C 
BRANCH  19  20
ATOM     20  C   UNL     1       8.711   0.149   3.143  0.00  0.00    +0.000 C 
ATOM     21  C   UNL     1      10.103   0.144   2.469  0.00  0.00    +0.000 C 
BRANCH  20  22
ATOM     22  N   UNL     1       8.554   1.373   3.989  0.00  0.00    +0.000 NA
ATOM     23  C   UNL     1       7.245   1.388   4.661  0.00  0.00    +0.000 C 
ATOM     24  C   UNL     1       9.591   1.377   5.041  0.00  0.00    +0.000 C 
ENDBRANCH  20  22
ENDBRANCH  19  20
ENDBRANCH  12  19
TORSDOF 5
