REMARK  Name = Propiverine
REMARK  10 active torsions:
REMARK  status: ('A' for Active; 'I' for Inactive)
REMARK    1  A    between atoms: C_1  and  C_2
REMARK    2  A    between atoms: C_2  and  C_3
REMARK    3  A    between atoms: C_3  and  O_4
REMARK    4  A    between atoms: O_4  and  C_5
REMARK    5  A    between atoms: C_5  and  C_6
REMARK    6  A    between atoms: C_5  and  C_16
REMARK    7  A    between atoms: C_5  and  C_22
REMARK    8  A    between atoms: C_6  and  O_8
REMARK    9  A    between atoms: O_8  and  C_9
REMARK   10  A    between atoms: N_12  and  C_13
REMARK                            x       y       z     vdW  Elec       q    Type
REMARK                         _______ _______ _______ _____ _____    ______ ____
ROOT
ATOM      1  C   UNL     1       5.038  -0.019   2.729  0.00  0.00    +0.000 C 
ENDROOT
BRANCH   1   2
ATOM      2  C   UNL     1       4.615  -1.308   3.497  0.00  0.00    +0.000 A 
ATOM      3  C   UNL     1       4.116  -1.308   4.822  0.00  0.00    +0.000 A 
ATOM      4  C   UNL     1       3.911  -2.489   5.522  0.00  0.00    +0.000 A 
ATOM      5  C   UNL     1       4.144  -3.701   4.891  0.00  0.00    +0.000 A 
ATOM      6  C   UNL     1       4.585  -3.729   3.567  0.00  0.00    +0.000 A 
ATOM      7  C   UNL     1       4.818  -2.545   2.874  0.00  0.00    +0.000 A 
ENDBRANCH   1   2
BRANCH   1   8
ATOM      8  C   UNL     1       6.560   0.058   2.724  0.00  0.00    +0.000 A 
ATOM      9  C   UNL     1       7.279   0.044   3.937  0.00  0.00    +0.000 A 
ATOM     10  C   UNL     1       8.661   0.196   3.939  0.00  0.00    +0.000 A 
ATOM     11  C   UNL     1       9.346   0.281   2.730  0.00  0.00    +0.000 A 
ATOM     12  C   UNL     1       8.652   0.241   1.522  0.00  0.00    +0.000 A 
ATOM     13  C   UNL     1       7.266   0.134   1.518  0.00  0.00    +0.000 A 
ENDBRANCH   1   8
BRANCH   1  14
ATOM     14  C   UNL     1       4.396   1.233   3.293  0.00  0.00    +0.000 C 
ATOM     15  O   UNL     1       3.266   1.082   3.795  0.00  0.00    +0.000 OA
BRANCH  14  16
ATOM     16  O   UNL     1       5.012   2.449   3.161  0.00  0.00    +0.000 OA
BRANCH  16  17
ATOM     17  C   UNL     1       4.334   3.647   3.699  0.00  0.00    +0.000 C 
ATOM     18  C   UNL     1       5.304   4.588   4.438  0.00  0.00    +0.000 C 
ATOM     19  C   UNL     1       5.936   3.895   5.648  0.00  0.00    +0.000 C 
ATOM     20  N   UNL     1       4.917   3.377   6.588  0.00  0.00    +0.000 NA
ATOM     21  C   UNL     1       5.574   2.564   7.618  0.00  0.00    +0.000 C 
ATOM     22  C   UNL     1       3.957   2.529   5.876  0.00  0.00    +0.000 C 
ATOM     23  C   UNL     1       3.263   3.319   4.740  0.00  0.00    +0.000 C 
ENDBRANCH  16  17
ENDBRANCH  14  16
ENDBRANCH   1  14
BRANCH   1  24
ATOM     24  O   UNL     1       4.504  -0.072   1.368  0.00  0.00    +0.000 OA
BRANCH  24  25
ATOM     25  C   UNL     1       3.072  -0.031   1.334  0.00  0.00    +0.000 C 
BRANCH  25  27
ATOM     26  C   UNL     1       1.069   0.002  -0.070  0.00  0.00    +0.000 C 
ATOM     27  C   UNL     1       2.586  -0.018  -0.089  0.00  0.00    +0.000 C 
ENDBRANCH  25  27
ENDBRANCH  24  25
ENDBRANCH   1  24
TORSDOF 8
