REMARK  Name = Propyliodone
REMARK  6 active torsions:
REMARK  status: ('A' for Active; 'I' for Inactive)
REMARK    1  A    between atoms: C_1  and  C_2
REMARK    2  A    between atoms: C_2  and  C_3
REMARK    3  A    between atoms: C_3  and  O_4
REMARK    4  A    between atoms: O_4  and  C_5
REMARK    5  A    between atoms: C_5  and  C_7
REMARK    6  A    between atoms: C_7  and  N_8
REMARK                            x       y       z     vdW  Elec       q    Type
REMARK                         _______ _______ _______ _____ _____    ______ ____
ROOT
ATOM      1  N   UNL     1       7.101   3.525  -2.173  0.00  0.00    +0.000 N 
ATOM      2  C   UNL     1       6.697   4.790  -1.749  0.00  0.00    +0.000 A 
ATOM      3  C   UNL     1       6.918   5.942  -2.397  0.00  0.00    +0.000 A 
ATOM      4  I   UNL     1       6.168   7.721  -1.731  0.00  0.00    +0.000 I 
ATOM      5  C   UNL     1       7.709   5.879  -3.665  0.00  0.00    +0.000 A 
ATOM      6  O   UNL     1       7.962   6.894  -4.314  0.00  0.00    +0.000 OA
ATOM      7  C   UNL     1       8.188   4.521  -4.100  0.00  0.00    +0.000 A 
ATOM      8  I   UNL     1       9.305   4.365  -5.812  0.00  0.00    +0.000 I 
ATOM      9  C   UNL     1       7.851   3.457  -3.346  0.00  0.00    +0.000 A 
ENDROOT
BRANCH   1  10
ATOM     10  C   UNL     1       6.552   2.313  -1.485  0.00  0.00    +0.000 C 
BRANCH  10  11
ATOM     11  C   UNL     1       5.011   2.315  -1.514  0.00  0.00    +0.000 C 
ATOM     12  O   UNL     1       4.321   3.158  -2.080  0.00  0.00    +0.000 OA
BRANCH  11  13
ATOM     13  O   UNL     1       4.479   1.274  -0.800  0.00  0.00    +0.000 OA
BRANCH  13  14
ATOM     14  C   UNL     1       3.036   1.293  -0.799  0.00  0.00    +0.000 C 
BRANCH  14  16
ATOM     15  C   UNL     1       0.968   0.084  -0.019  0.00  0.00    +0.000 C 
ATOM     16  C   UNL     1       2.491   0.096  -0.027  0.00  0.00    +0.000 C 
ENDBRANCH  14  16
ENDBRANCH  13  14
ENDBRANCH  11  13
ENDBRANCH  10  11
ENDBRANCH   1  10
TORSDOF 5
