REMARK  Name = Propranolol
REMARK  9 active torsions:
REMARK  status: ('A' for Active; 'I' for Inactive)
REMARK    1  A    between atoms: C_1  and  C_2
REMARK    2  A    between atoms: C_2  and  C_3
REMARK    3  A    between atoms: C_2  and  N_4
REMARK    4  A    between atoms: N_4  and  C_5
REMARK    5  A    between atoms: C_5  and  C_6
REMARK    6  A    between atoms: C_6  and  O_7
REMARK    7  A    between atoms: C_6  and  C_8
REMARK    8  A    between atoms: C_8  and  O_9
REMARK    9  A    between atoms: O_9  and  C_10
REMARK                            x       y       z     vdW  Elec       q    Type
REMARK                         _______ _______ _______ _____ _____    ______ ____
ROOT
ATOM      1  O   UNL     1       7.016  -3.461  -2.610  0.00  0.00    +0.000 OA
ENDROOT
BRANCH   1   2
ATOM      2  C   UNL     1       8.383  -3.566  -2.726  0.00  0.00    +0.000 A 
ATOM      3  C   UNL     1       9.219  -3.508  -1.607  0.00  0.00    +0.000 A 
ATOM      4  C   UNL     1      10.595  -3.671  -1.753  0.00  0.00    +0.000 A 
ATOM      5  C   UNL     1      11.138  -3.913  -3.012  0.00  0.00    +0.000 A 
ATOM      6  C   UNL     1      10.316  -4.021  -4.142  0.00  0.00    +0.000 A 
ATOM      7  C   UNL     1       8.914  -3.848  -4.007  0.00  0.00    +0.000 A 
ATOM      8  C   UNL     1       8.117  -3.969  -5.165  0.00  0.00    +0.000 A 
ATOM      9  C   UNL     1       8.678  -4.258  -6.410  0.00  0.00    +0.000 A 
ATOM     10  C   UNL     1      10.054  -4.430  -6.528  0.00  0.00    +0.000 A 
ATOM     11  C   UNL     1      10.865  -4.311  -5.401  0.00  0.00    +0.000 A 
ENDBRANCH   1   2
BRANCH   1  12
ATOM     12  C   UNL     1       6.564  -2.363  -1.811  0.00  0.00    +0.000 C 
BRANCH  12  13
ATOM     13  C   UNL     1       5.025  -2.337  -1.830  0.00  0.00    +0.000 C 
BRANCH  13  14
ATOM     14  O   UNL     1       4.522  -2.147  -3.160  0.00  0.00    +0.000 OA
ATOM     15  H   UNL     1       4.896  -1.320  -3.504  0.00  0.00    +0.000 HD
ENDBRANCH  13  14
BRANCH  13  16
ATOM     16  C   UNL     1       4.525  -1.198  -0.929  0.00  0.00    +0.000 C 
BRANCH  16  17
ATOM     17  N   UNL     1       3.060  -1.164  -0.866  0.00  0.00    +0.000 NA
ATOM     18  H   UNL     1       2.692  -1.110  -1.820  0.00  0.00    +0.000 HD
BRANCH  17  20
ATOM     19  C   UNL     1       1.023  -0.069  -0.086  0.00  0.00    +0.000 C 
ATOM     20  C   UNL     1       2.552  -0.062  -0.045  0.00  0.00    +0.000 C 
ATOM     21  C   UNL     1       3.015  -0.197   1.409  0.00  0.00    +0.000 C 
ENDBRANCH  17  20
ENDBRANCH  16  17
ENDBRANCH  13  16
ENDBRANCH  12  13
ENDBRANCH   1  12
TORSDOF 7
