REMARK  Name = Propafenone
REMARK  13 active torsions:
REMARK  status: ('A' for Active; 'I' for Inactive)
REMARK    1  A    between atoms: C_1  and  C_2
REMARK    2  A    between atoms: C_2  and  C_3
REMARK    3  A    between atoms: C_3  and  N_4
REMARK    4  A    between atoms: N_4  and  C_5
REMARK    5  A    between atoms: C_5  and  C_6
REMARK    6  A    between atoms: C_6  and  O_7
REMARK    7  A    between atoms: C_6  and  C_8
REMARK    8  A    between atoms: C_8  and  O_9
REMARK    9  A    between atoms: O_9  and  C_10
REMARK   10  A    between atoms: C_11  and  C_16
REMARK   11  A    between atoms: C_16  and  C_18
REMARK   12  A    between atoms: C_18  and  C_19
REMARK   13  A    between atoms: C_19  and  C_20
REMARK                            x       y       z     vdW  Elec       q    Type
REMARK                         _______ _______ _______ _____ _____    ______ ____
ROOT
ATOM      1  C   UNL     1       9.018  -1.480  -5.235  0.00  0.00    +0.000 A 
ATOM      2  C   UNL     1      10.130  -2.342  -5.174  0.00  0.00    +0.000 A 
ATOM      3  C   UNL     1      10.923  -2.516  -6.320  0.00  0.00    +0.000 A 
ATOM      4  C   UNL     1      10.553  -1.938  -7.532  0.00  0.00    +0.000 A 
ATOM      5  C   UNL     1       9.420  -1.134  -7.599  0.00  0.00    +0.000 A 
ATOM      6  C   UNL     1       8.670  -0.886  -6.451  0.00  0.00    +0.000 A 
ENDROOT
BRANCH   2   7
ATOM      7  C   UNL     1      10.474  -3.180  -3.983  0.00  0.00    +0.000 C 
ATOM      8  O   UNL     1      11.438  -3.952  -4.043  0.00  0.00    +0.000 OA
BRANCH   7   9
ATOM      9  C   UNL     1       9.586  -3.119  -2.767  0.00  0.00    +0.000 C 
BRANCH   9  10
ATOM     10  C   UNL     1      10.028  -4.061  -1.660  0.00  0.00    +0.000 C 
BRANCH  10  11
ATOM     11  C   UNL     1       9.164  -3.958  -0.426  0.00  0.00    +0.000 A 
ATOM     12  C   UNL     1       8.874  -2.718   0.161  0.00  0.00    +0.000 A 
ATOM     13  C   UNL     1       8.171  -2.640   1.361  0.00  0.00    +0.000 A 
ATOM     14  C   UNL     1       7.716  -3.803   1.970  0.00  0.00    +0.000 A 
ATOM     15  C   UNL     1       7.985  -5.043   1.392  0.00  0.00    +0.000 A 
ATOM     16  C   UNL     1       8.708  -5.121   0.202  0.00  0.00    +0.000 A 
ENDBRANCH  10  11
ENDBRANCH   9  10
ENDBRANCH   7   9
ENDBRANCH   2   7
BRANCH   1  17
ATOM     17  O   UNL     1       8.386  -1.102  -4.084  0.00  0.00    +0.000 OA
BRANCH  17  18
ATOM     18  C   UNL     1       6.956  -1.144  -4.107  0.00  0.00    +0.000 C 
BRANCH  18  19
ATOM     19  C   UNL     1       6.440  -0.786  -2.706  0.00  0.00    +0.000 C 
BRANCH  19  20
ATOM     20  O   UNL     1       6.890  -1.732  -1.734  0.00  0.00    +0.000 OA
ATOM     21  H   UNL     1       6.581  -2.620  -1.975  0.00  0.00    +0.000 HD
ENDBRANCH  19  20
BRANCH  19  22
ATOM     22  C   UNL     1       4.910  -0.766  -2.696  0.00  0.00    +0.000 C 
BRANCH  22  23
ATOM     23  N   UNL     1       4.415  -0.416  -1.364  0.00  0.00    +0.000 NA
ATOM     24  H   UNL     1       4.811  -1.066  -0.679  0.00  0.00    +0.000 HD
BRANCH  23  25
ATOM     25  C   UNL     1       2.961  -0.440  -1.339  0.00  0.00    +0.000 C 
BRANCH  25  27
ATOM     26  C   UNL     1       0.935  -0.066   0.063  0.00  0.00    +0.000 C 
ATOM     27  C   UNL     1       2.455  -0.071   0.050  0.00  0.00    +0.000 C 
ENDBRANCH  25  27
ENDBRANCH  23  25
ENDBRANCH  22  23
ENDBRANCH  19  22
ENDBRANCH  18  19
ENDBRANCH  17  18
ENDBRANCH   1  17
TORSDOF 12
