REMARK  Name = Propylthiouracil
REMARK  3 active torsions:
REMARK  status: ('A' for Active; 'I' for Inactive)
REMARK    1  A    between atoms: C_1  and  C_2
REMARK    2  A    between atoms: C_2  and  C_3
REMARK    3  A    between atoms: C_3  and  C_4
REMARK                            x       y       z     vdW  Elec       q    Type
REMARK                         _______ _______ _______ _____ _____    ______ ____
ROOT
ATOM      1  C   UNL     1       4.504  -1.471  -0.365  0.00  0.00    +0.000 A 
ATOM      2  C   UNL     1       5.174  -2.632  -0.373  0.00  0.00    +0.000 A 
ATOM      3  C   UNL     1       6.651  -2.619  -0.352  0.00  0.00    +0.000 A 
ATOM      4  O   UNL     1       7.291  -3.665  -0.324  0.00  0.00    +0.000 OA
ATOM      5  N   UNL     1       7.242  -1.386  -0.357  0.00  0.00    +0.000 N 
ATOM      6  C   UNL     1       6.564  -0.206  -0.345  0.00  0.00    +0.000 A 
ATOM      7  S   UNL     1       7.335   1.265  -0.325  0.00  0.00    +0.000 S 
ATOM      8  N   UNL     1       5.205  -0.287  -0.348  0.00  0.00    +0.000 N 
ATOM      9  H   UNL     1       8.251  -1.361  -0.344  0.00  0.00    +0.000 HD
ATOM     10  H   UNL     1       4.721   0.604  -0.329  0.00  0.00    +0.000 HD
ENDROOT
BRANCH   1  11
ATOM     11  C   UNL     1       2.995  -1.434  -0.362  0.00  0.00    +0.000 C 
BRANCH  11  13
ATOM     12  C   UNL     1       0.895  -0.079  -0.012  0.00  0.00    +0.000 C 
ATOM     13  C   UNL     1       2.408  -0.064  -0.015  0.00  0.00    +0.000 C 
ENDBRANCH  11  13
ENDBRANCH   1  11
TORSDOF 2
