REMARK  Name = Propofol
REMARK  7 active torsions:
REMARK  status: ('A' for Active; 'I' for Inactive)
REMARK    1  A    between atoms: C_1  and  C_2
REMARK    2  A    between atoms: C_2  and  C_3
REMARK    3  A    between atoms: C_2  and  C_4
REMARK    4  A    between atoms: C_8  and  C_9
REMARK    5  A    between atoms: C_9  and  C_10
REMARK    6  A    between atoms: C_9  and  C_11
REMARK    7  A    between atoms: C_12  and  O_13
REMARK                            x       y       z     vdW  Elec       q    Type
REMARK                         _______ _______ _______ _____ _____    ______ ____
ROOT
ATOM      1  C   UNL     1       3.061   0.723  -1.163  0.00  0.00    +0.000 A 
ATOM      2  C   UNL     1       3.640   0.112  -2.282  0.00  0.00    +0.000 A 
ATOM      3  C   UNL     1       3.976   0.865  -3.398  0.00  0.00    +0.000 A 
ATOM      4  C   UNL     1       3.716   2.235  -3.412  0.00  0.00    +0.000 A 
ATOM      5  C   UNL     1       3.136   2.903  -2.307  0.00  0.00    +0.000 A 
ATOM      6  C   UNL     1       2.869   2.121  -1.169  0.00  0.00    +0.000 A 
ENDROOT
BRANCH   1   8
ATOM      7  C   UNL     1       1.029  -0.048   0.085  0.00  0.00    +0.000 C 
ATOM      8  C   UNL     1       2.568  -0.062   0.048  0.00  0.00    +0.000 C 
ATOM      9  C   UNL     1       3.074  -1.498   0.109  0.00  0.00    +0.000 C 
ENDBRANCH   1   8
BRANCH   5  10
ATOM     10  C   UNL     1       2.893   4.403  -2.463  0.00  0.00    +0.000 C 
ATOM     11  C   UNL     1       1.965   4.692  -3.657  0.00  0.00    +0.000 C 
ATOM     12  C   UNL     1       2.304   5.132  -1.257  0.00  0.00    +0.000 C 
ENDBRANCH   5  10
BRANCH   6  13
ATOM     13  O   UNL     1       2.471   2.604   0.047  0.00  0.00    +0.000 OA
ATOM     14  H   UNL     1       1.877   3.358  -0.034  0.00  0.00    +0.000 HD
ENDBRANCH   6  13
TORSDOF 3
