REMARK  Name = Propyl alcohol
REMARK  3 active torsions:
REMARK  status: ('A' for Active; 'I' for Inactive)
REMARK    1  A    between atoms: C_1  and  C_2
REMARK    2  A    between atoms: C_2  and  C_3
REMARK    3  A    between atoms: C_3  and  O_4
REMARK                            x       y       z     vdW  Elec       q    Type
REMARK                         _______ _______ _______ _____ _____    ______ ____
ROOT
ATOM      1  C   UNL     1       2.981   1.408   0.165  0.00  0.00    +0.000 C 
ENDROOT
BRANCH   1   3
ATOM      2  C   UNL     1       0.932  -0.041   0.072  0.00  0.00    +0.000 C 
ATOM      3  C   UNL     1       2.450  -0.016   0.075  0.00  0.00    +0.000 C 
ENDBRANCH   1   3
BRANCH   1   4
ATOM      4  O   UNL     1       4.401   1.397   0.153  0.00  0.00    +0.000 OA
ATOM      5  H   UNL     1       4.697   0.889   0.927  0.00  0.00    +0.000 HD
ENDBRANCH   1   4
TORSDOF 2
