REMARK  Name = Protirelin
REMARK  6 active torsions:
REMARK  status: ('A' for Active; 'I' for Inactive)
REMARK    1  A    between atoms: C_2  and  C_3
REMARK    2  A    between atoms: C_2  and  N_9
REMARK    3  A    between atoms: C_2  and  C_19
REMARK    4  A    between atoms: C_3  and  C_4
REMARK    5  A    between atoms: C_10  and  C_12
REMARK    6  A    between atoms: C_25  and  C_27
REMARK                            x       y       z     vdW  Elec       q    Type
REMARK                         _______ _______ _______ _____ _____    ______ ____
ROOT
ATOM      1  C   UNL     1       2.101  -0.104  -0.053  0.00  0.00    +0.000 C 
ENDROOT
BRANCH   1   2
ATOM      2  C   UNL     1       2.655  -0.287  -1.502  0.00  0.00    +0.000 C 
ATOM      3  O   UNL     1       1.886  -0.351  -2.465  0.00  0.00    +0.000 OA
ATOM      4  N   UNL     1       4.016  -0.269  -1.712  0.00  0.00    +0.000 N 
ATOM      5  C   UNL     1       5.025  -0.977  -0.966  0.00  0.00    +0.000 C 
ATOM      6  C   UNL     1       6.219  -0.060  -1.037  0.00  0.00    +0.000 C 
ATOM      7  C   UNL     1       6.154   0.464  -2.468  0.00  0.00    +0.000 C 
ATOM      8  C   UNL     1       4.649   0.465  -2.831  0.00  0.00    +0.000 C 
BRANCH   8   9
ATOM      9  C   UNL     1       4.477  -0.157  -4.232  0.00  0.00    +0.000 C 
ATOM     10  N   UNL     1       3.831  -1.360  -4.289  0.00  0.00    +0.000 N 
ATOM     11  O   UNL     1       4.960   0.343  -5.245  0.00  0.00    +0.000 OA
ATOM     12  H   UNL     1       3.177  -1.573  -3.542  0.00  0.00    +0.000 HD
ATOM     13  H   UNL     1       3.564  -1.676  -5.212  0.00  0.00    +0.000 HD
ENDBRANCH   8   9
ENDBRANCH   1   2
BRANCH   1  14
ATOM     14  N   UNL     1       2.503  -1.205   0.813  0.00  0.00    +0.000 N 
ATOM     15  C   UNL     1       2.146  -1.285   2.142  0.00  0.00    +0.000 C 
ATOM     16  O   UNL     1       1.385  -0.482   2.676  0.00  0.00    +0.000 OA
ATOM     17  H   UNL     1       2.826  -2.039   0.343  0.00  0.00    +0.000 HD
BRANCH  15  18
ATOM     18  C   UNL     1       2.703  -2.485   2.923  0.00  0.00    +0.000 C 
ATOM     19  C   UNL     1       4.055  -2.997   2.442  0.00  0.00    +0.000 C 
ATOM     20  C   UNL     1       4.022  -4.484   2.751  0.00  0.00    +0.000 C 
ATOM     21  C   UNL     1       2.555  -4.804   2.663  0.00  0.00    +0.000 C 
ATOM     22  O   UNL     1       2.064  -5.915   2.521  0.00  0.00    +0.000 OA
ATOM     23  N   UNL     1       1.848  -3.634   2.806  0.00  0.00    +0.000 N 
ATOM     24  H   UNL     1       0.842  -3.635   2.943  0.00  0.00    +0.000 HD
ENDBRANCH  15  18
ENDBRANCH   1  14
BRANCH   1  25
ATOM     25  C   UNL     1       2.555   1.267   0.495  0.00  0.00    +0.000 C 
BRANCH  25  26
ATOM     26  C   UNL     1       2.084   2.419  -0.327  0.00  0.00    +0.000 A 
ATOM     27  C   UNL     1       1.279   2.506  -1.445  0.00  0.00    +0.000 A 
ATOM     28  N   UNL     1       1.204   3.789  -1.899  0.00  0.00    +0.000 NA
ATOM     29  C   UNL     1       1.902   4.497  -1.046  0.00  0.00    +0.000 A 
ATOM     30  N   UNL     1       2.431   3.719  -0.057  0.00  0.00    +0.000 N 
ATOM     31  H   UNL     1       2.986   4.049   0.721  0.00  0.00    +0.000 HD
ENDBRANCH  25  26
ENDBRANCH   1  25
TORSDOF 6
