REMARK  Name = Protionamide
REMARK  5 active torsions:
REMARK  status: ('A' for Active; 'I' for Inactive)
REMARK    1  A    between atoms: C_1  and  C_2
REMARK    2  A    between atoms: C_2  and  C_3
REMARK    3  A    between atoms: C_3  and  C_4
REMARK    4  A    between atoms: C_6  and  C_10
REMARK    5  A    between atoms: C_10  and  N_11
REMARK                            x       y       z     vdW  Elec       q    Type
REMARK                         _______ _______ _______ _____ _____    ______ ____
ROOT
ATOM      1  C   UNL     1       4.557  -1.342   0.246  0.00  0.00    +0.000 A 
ATOM      2  C   UNL     1       5.240  -1.072  -0.938  0.00  0.00    +0.000 A 
ATOM      3  C   UNL     1       6.639  -1.075  -0.950  0.00  0.00    +0.000 A 
ATOM      4  C   UNL     1       7.298  -1.356   0.249  0.00  0.00    +0.000 A 
ATOM      5  C   UNL     1       6.542  -1.610   1.382  0.00  0.00    +0.000 A 
ATOM      6  N   UNL     1       5.195  -1.607   1.406  0.00  0.00    +0.000 NA
ENDROOT
BRANCH   3   7
ATOM      7  C   UNL     1       7.390  -0.781  -2.216  0.00  0.00    +0.000 C 
ATOM      8  S   UNL     1       6.707  -0.415  -3.704  0.00  0.00    +0.000 S 
BRANCH   7   9
ATOM      9  N   UNL     1       8.761  -0.809  -2.181  0.00  0.00    +0.000 N 
ATOM     10  H   UNL     1       9.332  -1.011  -1.375  0.00  0.00    +0.000 HD
ATOM     11  H   UNL     1       9.256  -0.612  -3.045  0.00  0.00    +0.000 HD
ENDBRANCH   7   9
ENDBRANCH   3   7
BRANCH   1  12
ATOM     12  C   UNL     1       3.050  -1.325   0.267  0.00  0.00    +0.000 C 
BRANCH  12  14
ATOM     13  C   UNL     1       0.982   0.091   0.062  0.00  0.00    +0.000 C 
ATOM     14  C   UNL     1       2.500   0.087   0.066  0.00  0.00    +0.000 C 
ENDBRANCH  12  14
ENDBRANCH   1  12
TORSDOF 4
