REMARK  Name = Protokylol
REMARK  10 active torsions:
REMARK  status: ('A' for Active; 'I' for Inactive)
REMARK    1  A    between atoms: C_1  and  C_2
REMARK    2  A    between atoms: C_2  and  C_3
REMARK    3  A    between atoms: C_2  and  N_13
REMARK    4  A    between atoms: C_3  and  C_4
REMARK    5  A    between atoms: N_13  and  C_14
REMARK    6  A    between atoms: C_14  and  C_15
REMARK    7  A    between atoms: C_15  and  O_16
REMARK    8  A    between atoms: C_15  and  C_17
REMARK    9  A    between atoms: C_20  and  O_21
REMARK   10  A    between atoms: C_22  and  O_23
REMARK                            x       y       z     vdW  Elec       q    Type
REMARK                         _______ _______ _______ _____ _____    ______ ____
ROOT
ATOM      1  N   UNL     1       3.034  -1.284  -0.015  0.00  0.00    +0.000 NA
ATOM      2  H   UNL     1       2.666  -1.765  -0.839  0.00  0.00    +0.000 HD
ENDROOT
BRANCH   1   4
ATOM      3  C   UNL     1       0.988  -0.008  -0.041  0.00  0.00    +0.000 C 
ATOM      4  C   UNL     1       2.516   0.091   0.059  0.00  0.00    +0.000 C 
BRANCH   4   5
ATOM      5  C   UNL     1       2.974   0.787   1.366  0.00  0.00    +0.000 C 
BRANCH   5   6
ATOM      6  C   UNL     1       2.506   2.213   1.494  0.00  0.00    +0.000 A 
ATOM      7  C   UNL     1       1.174   2.478   1.874  0.00  0.00    +0.000 A 
ATOM      8  C   UNL     1       0.684   3.780   1.921  0.00  0.00    +0.000 A 
ATOM      9  C   UNL     1       1.574   4.795   1.654  0.00  0.00    +0.000 A 
ATOM     10  O   UNL     1       1.286   6.123   1.697  0.00  0.00    +0.000 OA
ATOM     11  C   UNL     1       2.594   6.681   1.462  0.00  0.00    +0.000 C 
ATOM     12  O   UNL     1       3.588   5.696   1.114  0.00  0.00    +0.000 OA
ATOM     13  C   UNL     1       2.883   4.552   1.320  0.00  0.00    +0.000 A 
ATOM     14  C   UNL     1       3.383   3.271   1.214  0.00  0.00    +0.000 A 
ENDBRANCH   5   6
ENDBRANCH   4   5
ENDBRANCH   1   4
BRANCH   1  15
ATOM     15  C   UNL     1       4.499  -1.341  -0.045  0.00  0.00    +0.000 C 
BRANCH  15  16
ATOM     16  C   UNL     1       5.010  -2.791  -0.156  0.00  0.00    +0.000 C 
BRANCH  16  17
ATOM     17  C   UNL     1       6.525  -2.796  -0.134  0.00  0.00    +0.000 A 
ATOM     18  C   UNL     1       7.290  -2.698  -1.310  0.00  0.00    +0.000 A 
ATOM     19  C   UNL     1       8.686  -2.681  -1.259  0.00  0.00    +0.000 A 
ATOM     20  C   UNL     1       9.322  -2.738  -0.025  0.00  0.00    +0.000 A 
ATOM     21  C   UNL     1       8.575  -2.799   1.147  0.00  0.00    +0.000 A 
ATOM     22  C   UNL     1       7.189  -2.828   1.104  0.00  0.00    +0.000 A 
BRANCH  20  23
ATOM     23  O   UNL     1      10.685  -2.733   0.080  0.00  0.00    +0.000 OA
ATOM     24  H   UNL     1      11.054  -2.721  -0.820  0.00  0.00    +0.000 HD
ENDBRANCH  20  23
BRANCH  21  25
ATOM     25  O   UNL     1       9.196  -2.830   2.363  0.00  0.00    +0.000 OA
ATOM     26  H   UNL     1      10.151  -2.812   2.156  0.00  0.00    +0.000 HD
ENDBRANCH  21  25
ENDBRANCH  16  17
BRANCH  16  27
ATOM     27  O   UNL     1       4.507  -3.415  -1.340  0.00  0.00    +0.000 OA
ATOM     28  H   UNL     1       4.697  -2.821  -2.082  0.00  0.00    +0.000 HD
ENDBRANCH  16  27
ENDBRANCH  15  16
ENDBRANCH   1  15
TORSDOF 9
