REMARK  Name = Protriptyline
REMARK  5 active torsions:
REMARK  status: ('A' for Active; 'I' for Inactive)
REMARK    1  A    between atoms: C_1  and  N_2
REMARK    2  A    between atoms: N_2  and  C_3
REMARK    3  A    between atoms: C_3  and  C_4
REMARK    4  A    between atoms: C_4  and  C_5
REMARK    5  A    between atoms: C_5  and  C_6
REMARK                            x       y       z     vdW  Elec       q    Type
REMARK                         _______ _______ _______ _____ _____    ______ ____
ROOT
ATOM      1  C   UNL     1       6.443   2.215   1.794  0.00  0.00    +0.000 C 
ATOM      2  C   UNL     1       6.910   3.660   1.750  0.00  0.00    +0.000 A 
ATOM      3  C   UNL     1       7.713   4.162   2.788  0.00  0.00    +0.000 A 
ATOM      4  C   UNL     1       8.108   5.498   2.790  0.00  0.00    +0.000 A 
ATOM      5  C   UNL     1       7.689   6.348   1.770  0.00  0.00    +0.000 A 
ATOM      6  C   UNL     1       6.911   5.856   0.724  0.00  0.00    +0.000 A 
ATOM      7  C   UNL     1       6.551   4.505   0.678  0.00  0.00    +0.000 A 
ATOM      8  C   UNL     1       5.762   4.055  -0.478  0.00  0.00    +0.000 C 
ATOM      9  C   UNL     1       5.846   2.855  -1.083  0.00  0.00    +0.000 C 
ATOM     10  C   UNL     1       6.718   1.725  -0.701  0.00  0.00    +0.000 A 
ATOM     11  C   UNL     1       7.061   0.801  -1.696  0.00  0.00    +0.000 A 
ATOM     12  C   UNL     1       7.850  -0.310  -1.397  0.00  0.00    +0.000 A 
ATOM     13  C   UNL     1       8.275  -0.537  -0.091  0.00  0.00    +0.000 A 
ATOM     14  C   UNL     1       7.857   0.312   0.930  0.00  0.00    +0.000 A 
ATOM     15  C   UNL     1       7.052   1.428   0.641  0.00  0.00    +0.000 A 
ENDROOT
BRANCH   1  16
ATOM     16  C   UNL     1       4.886   2.124   1.883  0.00  0.00    +0.000 C 
BRANCH  16  17
ATOM     17  C   UNL     1       4.267   1.003   1.045  0.00  0.00    +0.000 C 
BRANCH  17  18
ATOM     18  C   UNL     1       2.760   1.073   1.005  0.00  0.00    +0.000 C 
BRANCH  18  20
ATOM     19  C   UNL     1       0.859   0.045   0.006  0.00  0.00    +0.000 C 
ATOM     20  N   UNL     1       2.305   0.044   0.070  0.00  0.00    +0.000 NA
ATOM     21  H   UNL     1       2.694   0.227  -0.858  0.00  0.00    +0.000 HD
ENDBRANCH  18  20
ENDBRANCH  17  18
ENDBRANCH  16  17
ENDBRANCH   1  16
TORSDOF 4
