REMARK  Name = Proxibarbal
REMARK  6 active torsions:
REMARK  status: ('A' for Active; 'I' for Inactive)
REMARK    1  A    between atoms: C_1  and  C_2
REMARK    2  A    between atoms: C_2  and  O_3
REMARK    3  A    between atoms: C_2  and  C_4
REMARK    4  A    between atoms: C_4  and  C_5
REMARK    5  A    between atoms: C_5  and  C_6
REMARK    6  A    between atoms: C_6  and  C_7
REMARK                            x       y       z     vdW  Elec       q    Type
REMARK                         _______ _______ _______ _____ _____    ______ ____
ROOT
ATOM      1  C   UNL     1       4.509   1.066  -0.943  0.00  0.00    +0.000 C 
ATOM      2  C   UNL     1       4.911   1.922  -2.134  0.00  0.00    +0.000 C 
ATOM      3  O   UNL     1       4.665   3.126  -2.208  0.00  0.00    +0.000 OA
ATOM      4  N   UNL     1       5.547   1.295  -3.165  0.00  0.00    +0.000 N 
ATOM      5  C   UNL     1       5.885  -0.022  -3.232  0.00  0.00    +0.000 C 
ATOM      6  O   UNL     1       6.559  -0.462  -4.150  0.00  0.00    +0.000 OA
ATOM      7  N   UNL     1       5.472  -0.811  -2.207  0.00  0.00    +0.000 N 
ATOM      8  C   UNL     1       5.085  -0.343  -0.991  0.00  0.00    +0.000 C 
ATOM      9  O   UNL     1       5.232  -1.053   0.004  0.00  0.00    +0.000 OA
ATOM     10  H   UNL     1       5.853   1.879  -3.931  0.00  0.00    +0.000 HD
ATOM     11  H   UNL     1       5.864  -1.743  -2.188  0.00  0.00    +0.000 HD
ENDROOT
BRANCH   1  12
ATOM     12  C   UNL     1       2.954   1.041  -0.934  0.00  0.00    +0.000 C 
BRANCH  12  14
ATOM     13  C   UNL     1       0.818   0.044  -0.011  0.00  0.00    +0.000 C 
ATOM     14  C   UNL     1       2.330  -0.034  -0.036  0.00  0.00    +0.000 C 
BRANCH  14  15
ATOM     15  O   UNL     1       2.637  -1.338  -0.520  0.00  0.00    +0.000 OA
ATOM     16  H   UNL     1       2.424  -1.394  -1.464  0.00  0.00    +0.000 HD
ENDBRANCH  14  15
ENDBRANCH  12  14
ENDBRANCH   1  12
BRANCH   1  17
ATOM     17  C   UNL     1       5.079   1.740   0.324  0.00  0.00    +0.000 C 
BRANCH  17  18
ATOM     18  C   UNL     1       6.591   1.757   0.311  0.00  0.00    +0.000 C 
ATOM     19  C   UNL     1       7.328   2.237   1.315  0.00  0.00    +0.000 C 
ENDBRANCH  17  18
ENDBRANCH   1  17
TORSDOF 5
