REMARK  Name = Prucalopride
REMARK  8 active torsions:
REMARK  status: ('A' for Active; 'I' for Inactive)
REMARK    1  A    between atoms: C_1  and  O_2
REMARK    2  A    between atoms: O_2  and  C_3
REMARK    3  A    between atoms: C_3  and  C_4
REMARK    4  A    between atoms: C_4  and  C_5
REMARK    5  A    between atoms: C_5  and  N_6
REMARK    6  A    between atoms: C_9  and  N_12
REMARK    7  A    between atoms: C_13  and  C_15
REMARK    8  A    between atoms: C_21  and  N_22
REMARK                            x       y       z     vdW  Elec       q    Type
REMARK                         _______ _______ _______ _____ _____    ______ ____
ROOT
ATOM      1  N   UNL     1       8.687   0.927  -0.242  0.00  0.00    +0.000 N 
ATOM      2  C   UNL     1       9.107  -0.151  -1.018  0.00  0.00    +0.000 C 
ATOM      3  O   UNL     1       9.793  -1.072  -0.574  0.00  0.00    +0.000 OA
ATOM      4  H   UNL     1       8.113   1.647  -0.663  0.00  0.00    +0.000 HD
ENDROOT
BRANCH   2   5
ATOM      5  C   UNL     1       8.736  -0.150  -2.460  0.00  0.00    +0.000 A 
ATOM      6  C   UNL     1       8.302  -1.283  -3.160  0.00  0.00    +0.000 A 
ATOM      7  O   UNL     1       8.054  -2.546  -2.668  0.00  0.00    +0.000 OA
ATOM      8  C   UNL     1       7.596  -3.346  -3.796  0.00  0.00    +0.000 C 
ATOM      9  C   UNL     1       7.610  -2.512  -5.062  0.00  0.00    +0.000 C 
ATOM     10  C   UNL     1       8.053  -1.210  -4.527  0.00  0.00    +0.000 A 
ATOM     11  C   UNL     1       8.229  -0.051  -5.267  0.00  0.00    +0.000 A 
ATOM     12  C   UNL     1       8.671   1.081  -4.572  0.00  0.00    +0.000 A 
ATOM     13 CL   UNL     1       8.930   2.566  -5.421  0.00  0.00    +0.000 Cl
ATOM     14  C   UNL     1       8.928   1.038  -3.190  0.00  0.00    +0.000 A 
BRANCH  11  15
ATOM     15  N   UNL     1       7.931  -0.045  -6.619  0.00  0.00    +0.000 N 
ATOM     16  H   UNL     1       7.647  -0.888  -7.098  0.00  0.00    +0.000 HD
ATOM     17  H   UNL     1       8.100   0.792  -7.161  0.00  0.00    +0.000 HD
ENDBRANCH  11  15
ENDBRANCH   2   5
BRANCH   1  21
ATOM     18  N   UNL     1       6.294   1.031   2.537  0.00  0.00    +0.000 NA
ATOM     19  C   UNL     1       6.834  -0.190   1.913  0.00  0.00    +0.000 C 
ATOM     20  C   UNL     1       8.347  -0.228   1.953  0.00  0.00    +0.000 C 
ATOM     21  C   UNL     1       8.921   0.991   1.219  0.00  0.00    +0.000 C 
ATOM     22  C   UNL     1       8.328   2.264   1.853  0.00  0.00    +0.000 C 
ATOM     23  C   UNL     1       6.799   2.233   1.863  0.00  0.00    +0.000 C 
BRANCH  18  24
ATOM     24  C   UNL     1       4.823   1.011   2.537  0.00  0.00    +0.000 C 
BRANCH  24  25
ATOM     25  C   UNL     1       4.225   0.510   1.222  0.00  0.00    +0.000 C 
BRANCH  25  26
ATOM     26  C   UNL     1       2.722   0.529   1.257  0.00  0.00    +0.000 C 
BRANCH  26  28
ATOM     27  C   UNL     1       0.852   0.004  -0.028  0.00  0.00    +0.000 C 
ATOM     28  O   UNL     1       2.268   0.031   0.002  0.00  0.00    +0.000 OA
ENDBRANCH  26  28
ENDBRANCH  25  26
ENDBRANCH  24  25
ENDBRANCH  18  24
ENDBRANCH   1  21
TORSDOF 7
