REMARK  Name = Pseudoephedrine
REMARK  6 active torsions:
REMARK  status: ('A' for Active; 'I' for Inactive)
REMARK    1  A    between atoms: C_1  and  N_2
REMARK    2  A    between atoms: N_2  and  C_3
REMARK    3  A    between atoms: C_3  and  C_4
REMARK    4  A    between atoms: C_3  and  C_5
REMARK    5  A    between atoms: C_5  and  O_6
REMARK    6  A    between atoms: C_5  and  C_7
REMARK                            x       y       z     vdW  Elec       q    Type
REMARK                         _______ _______ _______ _____ _____    ______ ____
ROOT
ATOM      1  C   UNL     1       4.438   1.365  -0.289  0.00  0.00    +0.000 C 
ENDROOT
BRANCH   1   2
ATOM      2  C   UNL     1       4.962   2.738  -0.712  0.00  0.00    +0.000 A 
ATOM      3  C   UNL     1       6.318   2.947  -1.009  0.00  0.00    +0.000 A 
ATOM      4  C   UNL     1       6.809   4.250  -1.167  0.00  0.00    +0.000 A 
ATOM      5  C   UNL     1       5.979   5.357  -0.999  0.00  0.00    +0.000 A 
ATOM      6  C   UNL     1       4.628   5.163  -0.758  0.00  0.00    +0.000 A 
ATOM      7  C   UNL     1       4.136   3.870  -0.722  0.00  0.00    +0.000 A 
ENDBRANCH   1   2
BRANCH   1   8
ATOM      8  C   UNL     1       2.874   1.297  -0.122  0.00  0.00    +0.000 C 
ATOM      9  C   UNL     1       2.350   2.164   1.046  0.00  0.00    +0.000 C 
BRANCH   8  11
ATOM     10  C   UNL     1       0.942  -0.175   0.049  0.00  0.00    +0.000 C 
ATOM     11  N   UNL     1       2.396  -0.087   0.105  0.00  0.00    +0.000 NA
ATOM     12  H   UNL     1       2.822  -0.698  -0.595  0.00  0.00    +0.000 HD
ENDBRANCH   8  11
ENDBRANCH   1   8
BRANCH   1  13
ATOM     13  O   UNL     1       4.860   0.377  -1.245  0.00  0.00    +0.000 OA
ATOM     14  H   UNL     1       4.623   0.711  -2.124  0.00  0.00    +0.000 HD
ENDBRANCH   1  13
TORSDOF 4
