REMARK  Name = Pyrantel
REMARK  3 active torsions:
REMARK  status: ('A' for Active; 'I' for Inactive)
REMARK    1  A    between atoms: C_2  and  C_12
REMARK    2  A    between atoms: C_3  and  C_5
REMARK    3  A    between atoms: N_10  and  C_11
REMARK                            x       y       z     vdW  Elec       q    Type
REMARK                         _______ _______ _______ _____ _____    ______ ____
ROOT
ATOM      1  C   UNL     1       2.110  -0.007   0.078  0.00  0.00    +0.000 C 
ATOM      2  C   UNL     1       2.737  -0.828   0.933  0.00  0.00    +0.000 C 
ENDROOT
BRANCH   2   3
ATOM      3  C   UNL     1       1.929  -1.627   1.920  0.00  0.00    +0.000 C 
ATOM      4  N   UNL     1       2.369  -1.518   3.130  0.00  0.00    +0.000 NA
ATOM      5  C   UNL     1       1.723  -2.176   4.249  0.00  0.00    +0.000 C 
ATOM      6  C   UNL     1       0.520  -3.038   3.954  0.00  0.00    +0.000 C 
ATOM      7  C   UNL     1       0.092  -3.179   2.518  0.00  0.00    +0.000 C 
ATOM      8  N   UNL     1       0.829  -2.382   1.559  0.00  0.00    +0.000 N 
ATOM      9  C   UNL     1       0.443  -2.639   0.176  0.00  0.00    +0.000 C 
ENDBRANCH   2   3
BRANCH   1  10
ATOM     10  C   UNL     1       2.762   0.852  -0.848  0.00  0.00    +0.000 A 
ATOM     11  C   UNL     1       2.424   2.170  -1.105  0.00  0.00    +0.000 A 
ATOM     12  C   UNL     1       3.175   2.749  -2.165  0.00  0.00    +0.000 A 
ATOM     13  C   UNL     1       4.071   1.854  -2.701  0.00  0.00    +0.000 A 
ATOM     14  S   UNL     1       4.016   0.337  -1.905  0.00  0.00    +0.000 S 
ENDBRANCH   1  10
TORSDOF 2
