REMARK  Name = Pyrazinamide
REMARK  1 active torsions:
REMARK  status: ('A' for Active; 'I' for Inactive)
REMARK    1  A    between atoms: C_2  and  C_4
REMARK                            x       y       z     vdW  Elec       q    Type
REMARK                         _______ _______ _______ _____ _____    ______ ____
ROOT
ATOM      1  C   UNL     1       3.210  -0.790  -1.034  0.00  0.00    +0.000 A 
ATOM      2  N   UNL     1       2.714  -0.861  -2.301  0.00  0.00    +0.000 NA
ATOM      3  C   UNL     1       3.480  -1.569  -3.167  0.00  0.00    +0.000 A 
ATOM      4  C   UNL     1       4.643  -2.222  -2.783  0.00  0.00    +0.000 A 
ATOM      5  N   UNL     1       5.108  -2.188  -1.513  0.00  0.00    +0.000 NA
ATOM      6  C   UNL     1       4.374  -1.440  -0.648  0.00  0.00    +0.000 A 
ENDROOT
BRANCH   1   8
ATOM      7  N   UNL     1       1.121   0.045  -0.111  0.00  0.00    +0.000 N 
ATOM      8  C   UNL     1       2.488   0.055  -0.051  0.00  0.00    +0.000 C 
ATOM      9  O   UNL     1       3.090   0.716   0.790  0.00  0.00    +0.000 OA
ATOM     10  H   UNL     1       0.605   0.634   0.530  0.00  0.00    +0.000 HD
ATOM     11  H   UNL     1       0.619  -0.509  -0.793  0.00  0.00    +0.000 HD
ENDBRANCH   1   8
TORSDOF 1
