REMARK  Name = Pyridoxal phosphate
REMARK  8 active torsions:
REMARK  status: ('A' for Active; 'I' for Inactive)
REMARK    1  A    between atoms: C_1  and  C_2
REMARK    2  A    between atoms: C_5  and  C_6
REMARK    3  A    between atoms: C_6  and  O_7
REMARK    4  A    between atoms: O_7  and  P_8
REMARK    5  A    between atoms: P_8  and  O_9
REMARK    6  A    between atoms: P_8  and  O_10
REMARK    7  A    between atoms: C_12  and  C_13
REMARK    8  A    between atoms: C_15  and  O_16
REMARK                            x       y       z     vdW  Elec       q    Type
REMARK                         _______ _______ _______ _____ _____    ______ ____
ROOT
ATOM      1  C   UNL     1      -1.576  -1.769   0.018  0.00  0.00    +0.000 C 
ATOM      2  C   UNL     1      -0.458  -0.776  -0.007  0.00  0.00    +0.000 A 
ATOM      3  N   UNL     1       0.799  -1.275  -0.025  0.00  0.00    +0.000 NA
ATOM      4  C   UNL     1       1.806  -0.389  -0.064  0.00  0.00    +0.000 A 
ATOM      5  C   UNL     1       1.633   0.999  -0.088  0.00  0.00    +0.000 A 
ATOM      6  C   UNL     1       0.321   1.500  -0.057  0.00  0.00    +0.000 A 
ATOM      7  C   UNL     1      -0.734   0.588  -0.021  0.00  0.00    +0.000 A 
ENDROOT
BRANCH   6   8
ATOM      8  C   UNL     1      -0.032   2.947  -0.048  0.00  0.00    +0.000 C 
ATOM      9  O   UNL     1      -1.212   3.322  -0.000  0.00  0.00    +0.000 OA
ENDBRANCH   6   8
BRANCH   7  10
ATOM     10  O   UNL     1      -2.045   0.984  -0.000  0.00  0.00    +0.000 OA
ATOM     11  H   UNL     1      -2.071   1.970  -0.005  0.00  0.00    +0.000 HD
ENDBRANCH   7  10
BRANCH   5  12
ATOM     12  C   UNL     1       2.885   1.802  -0.074  0.00  0.00    +0.000 C 
BRANCH  12  13
ATOM     13  O   UNL     1       2.592   3.178   0.100  0.00  0.00    +0.000 OA
BRANCH  13  14
ATOM     14  P   UNL     1       3.991   4.194   0.161  0.00  0.00    +0.000 P 
ATOM     15  O   UNL     1       5.243   5.103   0.215  0.00  0.00    +0.000 OA
BRANCH  14  16
ATOM     16  O   UNL     1       3.075   5.080   1.185  0.00  0.00    +0.000 OA
ATOM     17  H   UNL     1       2.208   5.283   0.787  0.00  0.00    +0.000 HD
ENDBRANCH  14  16
BRANCH  14  18
ATOM     18  O   UNL     1       4.590   3.146   1.274  0.00  0.00    +0.000 OA
ATOM     19  H   UNL     1       4.017   2.973   2.040  0.00  0.00    +0.000 HD
ENDBRANCH  14  18
ENDBRANCH  13  14
ENDBRANCH  12  13
ENDBRANCH   5  12
TORSDOF 7
