REMARK  Name = Pyridostigmine
REMARK  5 active torsions:
REMARK  status: ('A' for Active; 'I' for Inactive)
REMARK    1  A    between atoms: C_1  and  N_2
REMARK    2  A    between atoms: N_2  and  C_3
REMARK    3  A    between atoms: C_4  and  O_6
REMARK    4  A    between atoms: O_6  and  C_7
REMARK    5  A    between atoms: N_9  and  C_10
REMARK                            x       y       z     vdW  Elec       q    Type
REMARK                         _______ _______ _______ _____ _____    ______ ____
ROOT
ATOM      1  C   UNL     1       5.296  -2.069  -1.266  0.00  0.00    +0.000 A 
ATOM      2  C   UNL     1       4.869  -2.508  -2.518  0.00  0.00    +0.000 A 
ATOM      3  N   UNL     1       5.529  -3.488  -3.176  0.00  0.00    +0.000 N 
ATOM      4  C   UNL     1       4.915  -4.090  -4.372  0.00  0.00    +0.000 C 
ATOM      5  C   UNL     1       6.698  -3.975  -2.702  0.00  0.00    +0.000 A 
ATOM      6  C   UNL     1       7.183  -3.548  -1.466  0.00  0.00    +0.000 A 
ATOM      7  C   UNL     1       6.462  -2.606  -0.725  0.00  0.00    +0.000 A 
ENDROOT
BRANCH   1   8
ATOM      8  O   UNL     1       4.597  -1.058  -0.556  0.00  0.00    +0.000 OA
BRANCH   8  12
ATOM      9  C   UNL     1       1.103   0.062  -0.061  0.00  0.00    +0.000 C 
ATOM     10  N   UNL     1       2.560   0.029  -0.059  0.00  0.00    +0.000 N 
ATOM     11  C   UNL     1       3.270   1.144   0.541  0.00  0.00    +0.000 C 
ATOM     12  C   UNL     1       3.189  -1.073  -0.619  0.00  0.00    +0.000 C 
ATOM     13  O   UNL     1       2.566  -1.990  -1.158  0.00  0.00    +0.000 OA
ENDBRANCH   8  12
ENDBRANCH   1   8
TORSDOF 2
