REMARK  Name = Pyrithione
REMARK  1 active torsions:
REMARK  status: ('A' for Active; 'I' for Inactive)
REMARK    1  A    between atoms: C_3  and  S_4
REMARK                            x       y       z     vdW  Elec       q    Type
REMARK                         _______ _______ _______ _____ _____    ______ ____
ROOT
ATOM      1  O   UNL     1       1.135  -0.027   0.186  0.00  0.00    +0.000 OA
ATOM      2  N   UNL     1       2.409  -0.008   0.098  0.00  0.00    +0.000 N 
ATOM      3  C   UNL     1       3.130   1.188   0.016  0.00  0.00    +0.000 A 
ATOM      4  C   UNL     1       4.530   1.157  -0.078  0.00  0.00    +0.000 A 
ATOM      5  C   UNL     1       5.200  -0.061  -0.180  0.00  0.00    +0.000 A 
ATOM      6  C   UNL     1       4.491  -1.250  -0.108  0.00  0.00    +0.000 A 
ATOM      7  C   UNL     1       3.108  -1.211   0.073  0.00  0.00    +0.000 A 
ENDROOT
BRANCH   3   8
ATOM      8  S   UNL     1       2.290   2.766  -0.010  0.00  0.00    +0.000 S 
ATOM      9  H   UNL     1       1.054   2.236  -0.060  0.00  0.00    +0.000 HD
ENDBRANCH   3   8
TORSDOF 1
