REMARK  Name = Pyrimethamine
REMARK  3 active torsions:
REMARK  status: ('A' for Active; 'I' for Inactive)
REMARK    1  A    between atoms: C_1  and  C_2
REMARK    2  A    between atoms: C_2  and  C_3
REMARK    3  A    between atoms: C_4  and  C_11
REMARK                            x       y       z     vdW  Elec       q    Type
REMARK                         _______ _______ _______ _____ _____    ______ ____
ROOT
ATOM      1  C   UNL     1       2.973  -1.482  -0.205  0.00  0.00    +0.000 A 
ATOM      2  C   UNL     1       2.164  -2.569   0.167  0.00  0.00    +0.000 A 
ATOM      3  C   UNL     1       2.702  -3.827  -0.130  0.00  0.00    +0.000 A 
ATOM      4  N   UNL     1       2.078  -4.994   0.316  0.00  0.00    +0.000 N 
ATOM      5  N   UNL     1       3.898  -4.007  -0.719  0.00  0.00    +0.000 NA
ATOM      6  C   UNL     1       4.592  -2.916  -1.024  0.00  0.00    +0.000 A 
ATOM      7  N   UNL     1       5.814  -3.092  -1.623  0.00  0.00    +0.000 N 
ATOM      8  N   UNL     1       4.189  -1.668  -0.794  0.00  0.00    +0.000 NA
ATOM      9  H   UNL     1       1.070  -4.965   0.399  0.00  0.00    +0.000 HD
ATOM     10  H   UNL     1       2.472  -5.826  -0.104  0.00  0.00    +0.000 HD
ATOM     11  H   UNL     1       6.152  -4.033  -1.708  0.00  0.00    +0.000 HD
ATOM     12  H   UNL     1       6.378  -2.282  -1.803  0.00  0.00    +0.000 HD
ENDROOT
BRANCH   2  13
ATOM     13  C   UNL     1       0.848  -2.472   0.842  0.00  0.00    +0.000 A 
ATOM     14  C   UNL     1       0.708  -2.830   2.193  0.00  0.00    +0.000 A 
ATOM     15  C   UNL     1      -0.495  -2.610   2.874  0.00  0.00    +0.000 A 
ATOM     16  C   UNL     1      -1.543  -1.954   2.234  0.00  0.00    +0.000 A 
ATOM     17 CL   UNL     1      -2.979  -1.571   3.097  0.00  0.00    +0.000 Cl
ATOM     18  C   UNL     1      -1.435  -1.616   0.891  0.00  0.00    +0.000 A 
ATOM     19  C   UNL     1      -0.292  -1.987   0.174  0.00  0.00    +0.000 A 
ENDBRANCH   2  13
BRANCH   1  21
ATOM     20  C   UNL     1       1.246   0.432   0.065  0.00  0.00    +0.000 C 
ATOM     21  C   UNL     1       2.691  -0.010   0.065  0.00  0.00    +0.000 C 
ENDBRANCH   1  21
TORSDOF 2
