REMARK  Name = Pyridoxine
REMARK  6 active torsions:
REMARK  status: ('A' for Active; 'I' for Inactive)
REMARK    1  A    between atoms: C_1  and  C_2
REMARK    2  A    between atoms: C_3  and  O_4
REMARK    3  A    between atoms: C_5  and  C_6
REMARK    4  A    between atoms: C_6  and  O_7
REMARK    5  A    between atoms: C_8  and  C_9
REMARK    6  A    between atoms: C_9  and  O_10
REMARK                            x       y       z     vdW  Elec       q    Type
REMARK                         _______ _______ _______ _____ _____    ______ ____
ROOT
ATOM      1  C   UNL     1      -1.529  -1.803   0.008  0.00  0.00    +0.000 C 
ATOM      2  C   UNL     1      -0.443  -0.769  -0.008  0.00  0.00    +0.000 A 
ATOM      3  C   UNL     1      -0.682   0.609  -0.039  0.00  0.00    +0.000 A 
ATOM      4  C   UNL     1       0.392   1.522  -0.008  0.00  0.00    +0.000 A 
ATOM      5  C   UNL     1       1.708   0.997   0.020  0.00  0.00    +0.000 A 
ATOM      6  C   UNL     1       1.839  -0.396   0.007  0.00  0.00    +0.000 A 
ATOM      7  N   UNL     1       0.815  -1.274   0.001  0.00  0.00    +0.000 NA
ENDROOT
BRANCH   3   8
ATOM      8  O   UNL     1      -1.947   1.129  -0.147  0.00  0.00    +0.000 OA
ATOM      9  H   UNL     1      -2.619   0.468   0.062  0.00  0.00    +0.000 HD
ENDBRANCH   3   8
BRANCH   4  10
ATOM     10  C   UNL     1       0.163   3.026   0.004  0.00  0.00    +0.000 C 
BRANCH  10  11
ATOM     11  O   UNL     1      -1.175   3.499  -0.083  0.00  0.00    +0.000 OA
ATOM     12  H   UNL     1      -1.669   2.811  -0.566  0.00  0.00    +0.000 HD
ENDBRANCH  10  11
ENDBRANCH   4  10
BRANCH   5  13
ATOM     13  C   UNL     1       3.002   1.780   0.068  0.00  0.00    +0.000 C 
BRANCH  13  14
ATOM     14  O   UNL     1       2.869   3.189   0.093  0.00  0.00    +0.000 OA
ATOM     15  H   UNL     1       2.616   3.468  -0.803  0.00  0.00    +0.000 HD
ENDBRANCH  13  14
ENDBRANCH   5  13
TORSDOF 5
