REMARK  Name = Pyrophosphoric acid
REMARK  6 active torsions:
REMARK  status: ('A' for Active; 'I' for Inactive)
REMARK    1  A    between atoms: O_1  and  P_2
REMARK    2  A    between atoms: P_2  and  O_3
REMARK    3  A    between atoms: P_2  and  O_5
REMARK    4  A    between atoms: O_5  and  P_6
REMARK    5  A    between atoms: P_6  and  O_7
REMARK    6  A    between atoms: P_6  and  O_8
REMARK                            x       y       z     vdW  Elec       q    Type
REMARK                         _______ _______ _______ _____ _____    ______ ____
ROOT
ATOM      1  O   UNL     1       4.362  -0.018  -0.008  0.00  0.00    +0.000 OA
ENDROOT
BRANCH   1   2
ATOM      2  P   UNL     1       2.632  -0.018  -0.008  0.00  0.00    +0.000 P 
ATOM      3  O   UNL     1       2.545  -0.513   1.435  0.00  0.00    +0.000 OA
BRANCH   2   4
ATOM      4  O   UNL     1       0.902  -0.018  -0.008  0.00  0.00    +0.000 OA
ATOM      5  H   UNL     1       0.712  -0.223   0.939  0.00  0.00    +0.000 HD
ENDBRANCH   2   4
BRANCH   2   6
ATOM      6  O   UNL     1       2.568   1.607   0.085  0.00  0.00    +0.000 OA
ATOM      7  H   UNL     1       1.680   1.896  -0.199  0.00  0.00    +0.000 HD
ENDBRANCH   2   6
ENDBRANCH   1   2
BRANCH   1   8
ATOM      8  P   UNL     1       4.939  -0.908  -1.375  0.00  0.00    +0.000 P 
ATOM      9  O   UNL     1       5.455  -1.704  -2.599  0.00  0.00    +0.000 OA
BRANCH   8  10
ATOM     10  O   UNL     1       5.782  -1.767  -0.262  0.00  0.00    +0.000 OA
ATOM     11  H   UNL     1       6.347  -1.196   0.288  0.00  0.00    +0.000 HD
ENDBRANCH   8  10
BRANCH   8  12
ATOM     12  O   UNL     1       3.631  -1.885  -1.220  0.00  0.00    +0.000 OA
ATOM     13  H   UNL     1       3.984  -2.755  -0.931  0.00  0.00    +0.000 HD
ENDBRANCH   8  12
ENDBRANCH   1   8
TORSDOF 6
