REMARK  Name = Pyruvic acid
REMARK  3 active torsions:
REMARK  status: ('A' for Active; 'I' for Inactive)
REMARK    1  A    between atoms: C_1  and  C_2
REMARK    2  A    between atoms: C_2  and  C_4
REMARK    3  A    between atoms: C_4  and  O_5
REMARK                            x       y       z     vdW  Elec       q    Type
REMARK                         _______ _______ _______ _____ _____    ______ ____
ROOT
ATOM      1  C   UNL     1       3.317   0.264   1.379  0.00  0.00    +0.000 C 
ATOM      2  O   UNL     1       4.537   0.267   1.393  0.00  0.00    +0.000 OA
ENDROOT
BRANCH   1   4
ATOM      3  C   UNL     1       1.037  -0.048   0.120  0.00  0.00    +0.000 C 
ATOM      4  C   UNL     1       2.537  -0.058   0.079  0.00  0.00    +0.000 C 
ATOM      5  O   UNL     1       3.145  -0.314  -0.955  0.00  0.00    +0.000 OA
ENDBRANCH   1   4
BRANCH   1   6
ATOM      6  O   UNL     1       2.592   0.535   2.473  0.00  0.00    +0.000 OA
ATOM      7  H   UNL     1       1.621   0.520   2.414  0.00  0.00    +0.000 HD
ENDBRANCH   1   6
TORSDOF 2
