REMARK  Name = Pyrvinium
REMARK  9 active torsions:
REMARK  status: ('A' for Active; 'I' for Inactive)
REMARK    1  A    between atoms: C_1  and  N_2
REMARK    2  A    between atoms: N_2  and  C_3
REMARK    3  A    between atoms: N_2  and  C_4
REMARK    4  A    between atoms: N_10  and  C_11
REMARK    5  A    between atoms: C_12  and  C_13
REMARK    6  A    between atoms: C_14  and  C_15
REMARK    7  A    between atoms: C_16  and  C_17
REMARK    8  A    between atoms: N_18  and  C_22
REMARK    9  A    between atoms: C_19  and  C_20
REMARK                            x       y       z     vdW  Elec       q    Type
REMARK                         _______ _______ _______ _____ _____    ______ ____
ROOT
ATOM      1  C   UNL     1       7.484  -1.783   5.947  0.00  0.00    +0.000 C 
ATOM      2  C   UNL     1       7.353  -2.912   6.642  0.00  0.00    +0.000 C 
ENDROOT
BRANCH   1  11
ATOM      3  C   UNL     1       3.236  -0.365   1.192  0.00  0.00    +0.000 A 
ATOM      4  C   UNL     1       4.390   0.287   1.658  0.00  0.00    +0.000 A 
ATOM      5  C   UNL     1       5.130  -0.182   2.762  0.00  0.00    +0.000 A 
ATOM      6  C   UNL     1       4.720  -1.364   3.411  0.00  0.00    +0.000 A 
ATOM      7  C   UNL     1       3.575  -2.014   2.923  0.00  0.00    +0.000 A 
ATOM      8  C   UNL     1       2.837  -1.511   1.863  0.00  0.00    +0.000 A 
ATOM      9  N   UNL     1       5.432  -1.844   4.474  0.00  0.00    +0.000 N 
ATOM     10  C   UNL     1       4.910  -3.020   5.185  0.00  0.00    +0.000 C 
ATOM     11  C   UNL     1       6.591  -1.234   4.891  0.00  0.00    +0.000 A 
ATOM     12  C   UNL     1       6.992  -0.036   4.274  0.00  0.00    +0.000 A 
ATOM     13  C   UNL     1       6.257   0.496   3.224  0.00  0.00    +0.000 A 
BRANCH   3  15
ATOM     14  C   UNL     1       1.072   0.030   0.079  0.00  0.00    +0.000 C 
ATOM     15  N   UNL     1       2.527   0.095   0.104  0.00  0.00    +0.000 N 
ATOM     16  C   UNL     1       3.242   0.503  -1.095  0.00  0.00    +0.000 C 
ENDBRANCH   3  15
ENDBRANCH   1  11
BRANCH   2  17
ATOM     17  C   UNL     1       8.239  -3.438   7.598  0.00  0.00    +0.000 A 
ATOM     18  C   UNL     1       8.612  -4.764   7.628  0.00  0.00    +0.000 A 
ATOM     19  C   UNL     1       8.209  -5.910   6.741  0.00  0.00    +0.000 C 
ATOM     20  N   UNL     1       9.431  -4.912   8.742  0.00  0.00    +0.000 N 
ATOM     21  C   UNL     1       9.483  -3.700   9.416  0.00  0.00    +0.000 A 
ATOM     22  C   UNL     1      10.311  -3.425  10.614  0.00  0.00    +0.000 C 
ATOM     23  C   UNL     1       8.730  -2.778   8.722  0.00  0.00    +0.000 A 
BRANCH  20  24
ATOM     24  C   UNL     1      10.055  -6.119   9.115  0.00  0.00    +0.000 A 
ATOM     25  C   UNL     1      10.831  -6.800   8.172  0.00  0.00    +0.000 A 
ATOM     26  C   UNL     1      11.318  -8.066   8.472  0.00  0.00    +0.000 A 
ATOM     27  C   UNL     1      11.087  -8.614   9.734  0.00  0.00    +0.000 A 
ATOM     28  C   UNL     1      10.344  -7.912  10.686  0.00  0.00    +0.000 A 
ATOM     29  C   UNL     1       9.816  -6.661  10.379  0.00  0.00    +0.000 A 
ENDBRANCH  20  24
ENDBRANCH   2  17
TORSDOF 4
