REMARK  Name = Quaternium-15
REMARK  2 active torsions:
REMARK  status: ('A' for Active; 'I' for Inactive)
REMARK    1  A    between atoms: C_5  and  C_7
REMARK    2  A    between atoms: C_7  and  N_8
REMARK                            x       y       z     vdW  Elec       q    Type
REMARK                         _______ _______ _______ _____ _____    ______ ____
ROOT
ATOM      1 CL   UNL     1      -0.300  -1.543   0.622  0.00  0.00    +0.000 Cl
ENDROOT
TORSDOF 0
REMARK  Name = Quaternium-15
REMARK  2 active torsions:
REMARK  status: ('A' for Active; 'I' for Inactive)
REMARK    1  A    between atoms: C_5  and  C_7
REMARK    2  A    between atoms: C_7  and  N_8
REMARK                            x       y       z     vdW  Elec       q    Type
REMARK                         _______ _______ _______ _____ _____    ______ ____
ROOT
ATOM      1  N   UNL     2       4.729   0.851   2.461  0.00  0.00    +0.000 N 
ATOM      2  C   UNL     2       3.731   1.734   3.131  0.00  0.00    +0.000 C 
ATOM      3  N   UNL     2       4.180   2.129   4.438  0.00  0.00    +0.000 NA
ATOM      4  C   UNL     2       4.356   0.931   5.242  0.00  0.00    +0.000 C 
ATOM      5  N   UNL     2       5.384   0.091   4.648  0.00  0.00    +0.000 NA
ATOM      6  C   UNL     2       6.625   0.841   4.555  0.00  0.00    +0.000 C 
ATOM      7  N   UNL     2       6.434   2.015   3.720  0.00  0.00    +0.000 NA
ATOM      8  C   UNL     2       5.419   2.865   4.319  0.00  0.00    +0.000 C 
ATOM      9  C   UNL     2       6.011   1.606   2.399  0.00  0.00    +0.000 C 
ATOM     10  C   UNL     2       4.958  -0.331   3.333  0.00  0.00    +0.000 C 
ENDROOT
BRANCH   1  11
ATOM     11  C   UNL     2       4.289   0.406   1.068  0.00  0.00    +0.000 C 
BRANCH  11  14
ATOM     12  C   UNL     2       2.306   0.438  -0.450  0.00  0.00    +0.000 C 
ATOM     13 CL   UNL     2       3.165  -0.069  -1.832  0.00  0.00    +0.000 Cl
ATOM     14  C   UNL     2       2.836   0.488   0.784  0.00  0.00    +0.000 C 
ENDBRANCH  11  14
ENDBRANCH   1  11
TORSDOF 2
