REMARK  Name = Quazepam
REMARK  3 active torsions:
REMARK  status: ('A' for Active; 'I' for Inactive)
REMARK    1  A    between atoms: C_7  and  C_8
REMARK    2  A    between atoms: N_13  and  C_14
REMARK    3  A    between atoms: C_14  and  C_15
REMARK                            x       y       z     vdW  Elec       q    Type
REMARK                         _______ _______ _______ _____ _____    ______ ____
ROOT
ATOM      1  C   UNL     1       0.956   2.429   0.018  0.00  0.00    +0.000 C 
ATOM      2  N   UNL     1       1.702   2.820  -0.961  0.00  0.00    +0.000 NA
ATOM      3  C   UNL     1       2.632   3.927  -0.740  0.00  0.00    +0.000 C 
ATOM      4  C   UNL     1       1.852   5.233  -0.649  0.00  0.00    +0.000 C 
ATOM      5  S   UNL     1       2.088   6.387  -1.867  0.00  0.00    +0.000 S 
ATOM      6  N   UNL     1       1.051   5.430   0.493  0.00  0.00    +0.000 N 
ATOM      7  C   UNL     1       0.987   4.460   1.549  0.00  0.00    +0.000 A 
ATOM      8  C   UNL     1       0.878   3.074   1.358  0.00  0.00    +0.000 A 
ATOM      9  C   UNL     1       0.647   2.227   2.467  0.00  0.00    +0.000 A 
ATOM     10  C   UNL     1       0.489   2.745   3.743  0.00  0.00    +0.000 A 
ATOM     11 CL   UNL     1       0.163   1.699   5.065  0.00  0.00    +0.000 Cl
ATOM     12  C   UNL     1       0.660   4.098   3.951  0.00  0.00    +0.000 A 
ATOM     13  C   UNL     1       0.998   4.917   2.873  0.00  0.00    +0.000 A 
ENDROOT
BRANCH   1  20
ATOM     14  F   UNL     1       2.179  -0.066  -0.041  0.00  0.00    +0.000 F 
ATOM     15  C   UNL     1       0.841  -0.029  -0.136  0.00  0.00    +0.000 A 
ATOM     16  C   UNL     1       0.135  -1.224  -0.068  0.00  0.00    +0.000 A 
ATOM     17  C   UNL     1      -1.260  -1.200  -0.036  0.00  0.00    +0.000 A 
ATOM     18  C   UNL     1      -1.944   0.020  -0.049  0.00  0.00    +0.000 A 
ATOM     19  C   UNL     1      -1.235   1.223  -0.103  0.00  0.00    +0.000 A 
ATOM     20  C   UNL     1       0.163   1.190  -0.163  0.00  0.00    +0.000 A 
ENDBRANCH   1  20
BRANCH   6  21
ATOM     21  C   UNL     1       0.208   6.672   0.595  0.00  0.00    +0.000 C 
BRANCH  21  22
ATOM     22  C   UNL     1      -0.879   6.844   1.669  0.00  0.00    +0.000 C 
ATOM     23  F   UNL     1      -1.664   5.749   1.775  0.00  0.00    +0.000 F 
ATOM     24  F   UNL     1      -0.375   7.129   2.889  0.00  0.00    +0.000 F 
ATOM     25  F   UNL     1      -1.687   7.887   1.360  0.00  0.00    +0.000 F 
ENDBRANCH  21  22
ENDBRANCH   6  21
TORSDOF 3
