REMARK  Name = Quetiapine
REMARK  6 active torsions:
REMARK  status: ('A' for Active; 'I' for Inactive)
REMARK    1  A    between atoms: O_1  and  C_2
REMARK    2  A    between atoms: C_2  and  C_3
REMARK    3  A    between atoms: C_3  and  O_4
REMARK    4  A    between atoms: O_4  and  C_5
REMARK    5  A    between atoms: C_5  and  C_6
REMARK    6  A    between atoms: C_6  and  N_7
REMARK                            x       y       z     vdW  Elec       q    Type
REMARK                         _______ _______ _______ _____ _____    ______ ____
ROOT
ATOM      1  N   UNL     1       7.128   3.880   0.990  0.00  0.00    +0.000 NA
ATOM      2  C   UNL     1       8.010   3.959  -0.203  0.00  0.00    +0.000 C 
ATOM      3  C   UNL     1       7.241   4.440  -1.459  0.00  0.00    +0.000 C 
ATOM      4  N   UNL     1       6.750   5.797  -1.194  0.00  0.00    +0.000 N 
ATOM      5  C   UNL     1       5.823   5.847  -0.068  0.00  0.00    +0.000 C 
ATOM      6  C   UNL     1       6.482   5.203   1.182  0.00  0.00    +0.000 C 
ATOM      7  C   UNL     1       7.127   6.848  -2.028  0.00  0.00    +0.000 C 
ATOM      8  N   UNL     1       6.866   6.716  -3.296  0.00  0.00    +0.000 NA
ATOM      9  C   UNL     1       7.237   7.648  -4.290  0.00  0.00    +0.000 A 
ATOM     10  C   UNL     1       6.247   8.030  -5.204  0.00  0.00    +0.000 A 
ATOM     11  C   UNL     1       6.541   8.862  -6.289  0.00  0.00    +0.000 A 
ATOM     12  C   UNL     1       7.837   9.333  -6.470  0.00  0.00    +0.000 A 
ATOM     13  C   UNL     1       8.839   8.963  -5.573  0.00  0.00    +0.000 A 
ATOM     14  C   UNL     1       8.550   8.107  -4.496  0.00  0.00    +0.000 A 
ATOM     15  S   UNL     1       9.882   7.641  -3.395  0.00  0.00    +0.000 S 
ATOM     16  C   UNL     1       9.182   8.338  -1.908  0.00  0.00    +0.000 A 
ATOM     17  C   UNL     1       9.927   9.333  -1.252  0.00  0.00    +0.000 A 
ATOM     18  C   UNL     1       9.412   9.989  -0.135  0.00  0.00    +0.000 A 
ATOM     19  C   UNL     1       8.141   9.673   0.322  0.00  0.00    +0.000 A 
ATOM     20  C   UNL     1       7.396   8.687  -0.324  0.00  0.00    +0.000 A 
ATOM     21  C   UNL     1       7.909   7.990  -1.424  0.00  0.00    +0.000 A 
ENDROOT
BRANCH   1  22
ATOM     22  C   UNL     1       6.306   2.665   0.849  0.00  0.00    +0.000 C 
BRANCH  22  23
ATOM     23  C   UNL     1       4.785   2.699   0.845  0.00  0.00    +0.000 C 
BRANCH  23  24
ATOM     24  O   UNL     1       4.338   1.377   0.506  0.00  0.00    +0.000 OA
BRANCH  24  25
ATOM     25  C   UNL     1       2.919   1.337   0.434  0.00  0.00    +0.000 C 
BRANCH  25  26
ATOM     26  C   UNL     1       2.449  -0.061   0.066  0.00  0.00    +0.000 C 
BRANCH  26  27
ATOM     27  O   UNL     1       1.027  -0.079   0.054  0.00  0.00    +0.000 OA
ATOM     28  H   UNL     1       0.757  -0.984  -0.174  0.00  0.00    +0.000 HD
ENDBRANCH  26  27
ENDBRANCH  25  26
ENDBRANCH  24  25
ENDBRANCH  23  24
ENDBRANCH  22  23
ENDBRANCH   1  22
TORSDOF 6
