REMARK  Name = Quinine
REMARK  6 active torsions:
REMARK  status: ('A' for Active; 'I' for Inactive)
REMARK    1  A    between atoms: C_2  and  C_12
REMARK    2  A    between atoms: C_9  and  C_10
REMARK    3  A    between atoms: C_12  and  O_13
REMARK    4  A    between atoms: C_12  and  C_14
REMARK    5  A    between atoms: C_21  and  O_22
REMARK    6  A    between atoms: O_22  and  C_23
REMARK                            x       y       z     vdW  Elec       q    Type
REMARK                         _______ _______ _______ _____ _____    ______ ____
ROOT
ATOM      1  C   UNL     1       0.359   0.112   0.101  0.00  0.00    +0.000 C 
ENDROOT
BRANCH   1   2
ATOM      2  C   UNL     1      -0.269   1.549   0.027  0.00  0.00    +0.000 A 
ATOM      3  C   UNL     1      -0.364   2.189  -1.215  0.00  0.00    +0.000 A 
ATOM      4  C   UNL     1       0.011   3.537  -1.294  0.00  0.00    +0.000 A 
ATOM      5  N   UNL     1       0.359   4.285  -0.245  0.00  0.00    +0.000 NA
ATOM      6  C   UNL     1       0.090   3.760   0.949  0.00  0.00    +0.000 A 
ATOM      7  C   UNL     1       0.241   4.611   2.009  0.00  0.00    +0.000 A 
ATOM      8  C   UNL     1      -0.216   4.238   3.265  0.00  0.00    +0.000 A 
ATOM      9  C   UNL     1      -0.744   2.965   3.467  0.00  0.00    +0.000 A 
ATOM     10  C   UNL     1      -0.746   2.037   2.430  0.00  0.00    +0.000 A 
ATOM     11  C   UNL     1      -0.325   2.416   1.142  0.00  0.00    +0.000 A 
BRANCH   9  12
ATOM     12  O   UNL     1      -1.299   2.522   4.634  0.00  0.00    +0.000 OA
ATOM     13  C   UNL     1      -1.402   3.505   5.655  0.00  0.00    +0.000 C 
ENDBRANCH   9  12
ENDBRANCH   1   2
BRANCH   1  14
ATOM     14  C   UNL     1       1.992   0.020   0.023  0.00  0.00    +0.000 C 
ATOM     15  C   UNL     1       2.639   1.328   0.506  0.00  0.00    +0.000 C 
ATOM     16  C   UNL     1       3.415   1.991  -0.650  0.00  0.00    +0.000 C 
ATOM     17  C   UNL     1       2.609   1.923  -1.954  0.00  0.00    +0.000 C 
ATOM     18  C   UNL     1       2.183   0.506  -2.343  0.00  0.00    +0.000 C 
ATOM     19  N   UNL     1       2.625  -0.406  -1.291  0.00  0.00    +0.000 NA
ATOM     20  C   UNL     1       4.125  -0.280  -1.275  0.00  0.00    +0.000 C 
ATOM     21  C   UNL     1       4.645   1.161  -0.965  0.00  0.00    +0.000 C 
BRANCH  21  22
ATOM     22  C   UNL     1       5.649   1.274   0.148  0.00  0.00    +0.000 C 
ATOM     23  C   UNL     1       5.565   0.566   1.281  0.00  0.00    +0.000 C 
ENDBRANCH  21  22
ENDBRANCH   1  14
BRANCH   1  24
ATOM     24  O   UNL     1      -0.071  -0.579   1.284  0.00  0.00    +0.000 OA
ATOM     25  H   UNL     1       0.474  -0.256   2.023  0.00  0.00    +0.000 HD
ENDBRANCH   1  24
TORSDOF 5
