REMARK  Name = Quinestrol
REMARK  5 active torsions:
REMARK  status: ('A' for Active; 'I' for Inactive)
REMARK    1  A    between atoms: C_5  and  O_6
REMARK    2  A    between atoms: C_5  and  C_7
REMARK    3  A    between atoms: C_9  and  C_10
REMARK    4  A    between atoms: C_22  and  O_23
REMARK    5  A    between atoms: O_23  and  C_24
REMARK                            x       y       z     vdW  Elec       q    Type
REMARK                         _______ _______ _______ _____ _____    ______ ____
ROOT
ATOM      1  C   UNL     1       1.928  -0.040  -0.227  0.00  0.00    +0.000 C 
ATOM      2  C   UNL     1       2.393  -0.348  -1.528  0.00  0.00    +0.000 C 
ATOM      3  C   UNL     1       3.333  -0.467  -0.385  0.00  0.00    +0.000 C 
ATOM      4  C   UNL     1       2.373  -0.611   1.468  0.00  0.00    +0.000 C 
ATOM      5  C   UNL     1       2.849  -1.521   0.577  0.00  0.00    +0.000 C 
ATOM      6  C   UNL     1       2.360  -2.876   0.272  0.00  0.00    +0.000 C 
ATOM      7  C   UNL     1       4.512  -1.214   1.296  0.00  0.00    +0.000 C 
ATOM      8  C   UNL     1       4.645   0.333   1.830  0.00  0.00    +0.000 C 
ATOM      9  C   UNL     1       4.140   1.529   0.904  0.00  0.00    +0.000 C 
ATOM     10  C   UNL     1       4.398   2.888   1.440  0.00  0.00    +0.000 A 
ATOM     11  C   UNL     1       3.566   3.929   1.048  0.00  0.00    +0.000 A 
ATOM     12  C   UNL     1       2.377   3.856   0.120  0.00  0.00    +0.000 C 
ATOM     13  C   UNL     1       2.273   2.545  -0.597  0.00  0.00    +0.000 C 
ATOM     14  C   UNL     1       2.543   1.482   0.437  0.00  0.00    +0.000 C 
ATOM     15  C   UNL     1       3.795   5.137   1.638  0.00  0.00    +0.000 A 
ATOM     16  C   UNL     1       4.884   5.391   2.469  0.00  0.00    +0.000 A 
ATOM     17  C   UNL     1       5.767   4.369   2.762  0.00  0.00    +0.000 A 
ATOM     18  C   UNL     1       5.524   3.116   2.242  0.00  0.00    +0.000 A 
ENDROOT
BRANCH   4  19
ATOM     19  O   UNL     1       2.598  -1.506   2.620  0.00  0.00    +0.000 OA
ATOM     20  H   UNL     1       3.343  -1.361   3.214  0.00  0.00    +0.000 HD
ENDBRANCH   4  19
BRANCH   4  21
ATOM     21  C   UNL     1       0.784  -0.787   1.630  0.00  0.00    +0.000 C 
ATOM     22  C   UNL     1      -0.410  -1.017   1.782  0.00  0.00    +0.000 C 
ENDBRANCH   4  21
BRANCH  16  23
ATOM     23  O   UNL     1       5.148   6.610   3.020  0.00  0.00    +0.000 OA
BRANCH  23  24
ATOM     24  C   UNL     1       4.352   7.712   2.585  0.00  0.00    +0.000 C 
ATOM     25  C   UNL     1       4.372   7.949   1.066  0.00  0.00    +0.000 C 
ATOM     26  C   UNL     1       3.095   8.718   0.800  0.00  0.00    +0.000 C 
ATOM     27  C   UNL     1       2.084   8.251   1.851  0.00  0.00    +0.000 C 
ATOM     28  C   UNL     1       2.874   7.652   3.015  0.00  0.00    +0.000 C 
ENDBRANCH  23  24
ENDBRANCH  16  23
TORSDOF 4
