REMARK  Name = Quinupramine
REMARK  1 active torsions:
REMARK  status: ('A' for Active; 'I' for Inactive)
REMARK    1  A    between atoms: C_7  and  N_9
REMARK                            x       y       z     vdW  Elec       q    Type
REMARK                         _______ _______ _______ _____ _____    ______ ____
ROOT
ATOM      1  N   UNL     1       1.278  -1.765   1.851  0.00  0.00    +0.000 N 
ATOM      2  C   UNL     1       1.384  -3.084   1.408  0.00  0.00    +0.000 A 
ATOM      3  C   UNL     1       0.252  -3.817   1.003  0.00  0.00    +0.000 A 
ATOM      4  C   UNL     1       0.290  -5.208   0.797  0.00  0.00    +0.000 A 
ATOM      5  C   UNL     1       1.470  -5.914   0.977  0.00  0.00    +0.000 A 
ATOM      6  C   UNL     1       2.615  -5.222   1.343  0.00  0.00    +0.000 A 
ATOM      7  C   UNL     1       2.595  -3.822   1.554  0.00  0.00    +0.000 A 
ATOM      8  C   UNL     1       3.938  -3.231   1.968  0.00  0.00    +0.000 C 
ATOM      9  C   UNL     1       4.051  -1.716   2.134  0.00  0.00    +0.000 C 
ATOM     10  C   UNL     1       3.170  -1.262   3.267  0.00  0.00    +0.000 A 
ATOM     11  C   UNL     1       3.658  -0.723   4.456  0.00  0.00    +0.000 A 
ATOM     12  C   UNL     1       2.763  -0.320   5.456  0.00  0.00    +0.000 A 
ATOM     13  C   UNL     1       1.387  -0.453   5.297  0.00  0.00    +0.000 A 
ATOM     14  C   UNL     1       0.896  -1.009   4.127  0.00  0.00    +0.000 A 
ATOM     15  C   UNL     1       1.790  -1.393   3.120  0.00  0.00    +0.000 A 
ENDROOT
BRANCH   1  22
ATOM     16  C   UNL     1       0.760   1.358  -0.343  0.00  0.00    +0.000 C 
ATOM     17  C   UNL     1      -0.779   1.348  -0.336  0.00  0.00    +0.000 C 
ATOM     18  N   UNL     1      -1.326  -0.005  -0.085  0.00  0.00    +0.000 NA
ATOM     19  C   UNL     1      -0.804  -0.935  -1.116  0.00  0.00    +0.000 C 
ATOM     20  C   UNL     1       0.733  -0.970  -1.176  0.00  0.00    +0.000 C 
ATOM     21  C   UNL     1       1.290  -0.075  -0.080  0.00  0.00    +0.000 C 
ATOM     22  C   UNL     1       0.698  -0.526   1.266  0.00  0.00    +0.000 C 
ATOM     23  C   UNL     1      -0.838  -0.471   1.235  0.00  0.00    +0.000 C 
ENDBRANCH   1  22
TORSDOF 1
