REMARK  Name = Quinapril
REMARK  13 active torsions:
REMARK  status: ('A' for Active; 'I' for Inactive)
REMARK    1  A    between atoms: C_1  and  C_2
REMARK    2  A    between atoms: C_2  and  O_3
REMARK    3  A    between atoms: O_3  and  C_4
REMARK    4  A    between atoms: C_4  and  C_6
REMARK    5  A    between atoms: C_6  and  C_7
REMARK    6  A    between atoms: C_6  and  N_15
REMARK    7  A    between atoms: C_7  and  C_8
REMARK    8  A    between atoms: C_8  and  C_9
REMARK    9  A    between atoms: N_15  and  CA_16
REMARK   10  A    between atoms: CA_16  and  CB_17
REMARK   11  A    between atoms: CA_16  and  C_18
REMARK   12  A    between atoms: C_29  and  C_30
REMARK   13  A    between atoms: C_30  and  O_31
REMARK                            x       y       z     vdW  Elec       q    Type
REMARK                         _______ _______ _______ _____ _____    ______ ____
ROOT
ATOM      1  CA  ALA A   1       6.929   1.307  -4.374  0.00  0.00    +0.000 C 
ATOM      2  CB  ALA A   1       6.478   2.731  -4.640  0.00  0.00    +0.000 C 
ENDROOT
BRANCH   1   3
ATOM      3  C   ALA A   1       8.493   1.188  -4.394  0.00  0.00    +0.000 C 
ATOM      4  O   ALA A   1       9.102   0.816  -3.383  0.00  0.00    +0.000 OA
ATOM      5  N   UNK A   2       9.192   1.435  -5.589  0.00  0.00    +0.000 N 
ATOM      6  C   UNK A   2      10.659   1.337  -5.497  0.00  0.00    +0.000 C 
ATOM      7  C   UNK A   2      11.322   1.744  -6.797  0.00  0.00    +0.000 A 
ATOM      8  C   UNK A   2      11.930   0.837  -7.651  0.00  0.00    +0.000 A 
ATOM      9  C   UNK A   2      12.382   1.262  -8.904  0.00  0.00    +0.000 A 
ATOM     10  C   UNK A   2      12.228   2.593  -9.311  0.00  0.00    +0.000 A 
ATOM     11  C   UNK A   2      11.549   3.498  -8.503  0.00  0.00    +0.000 A 
ATOM     12  C   UNK A   2      11.006   3.020  -7.312  0.00  0.00    +0.000 A 
ATOM     13  C   UNK A   2       9.704   3.549  -6.756  0.00  0.00    +0.000 C 
ATOM     14  C   UNK A   2       8.740   2.261  -6.764  0.00  0.00    +0.000 C 
BRANCH  14  15
ATOM     15  C   UNK A   2       8.529   1.388  -8.096  0.00  0.00    +0.000 C 
ATOM     16  O   UNK A   2       9.345   0.711  -8.666  0.00  0.00    +0.000 OA
BRANCH  15  17
ATOM     17  O   UNK A   2       7.239   1.307  -8.551  0.00  0.00    +0.000 OA
ATOM     18  H   UNK A   2       6.478   1.672  -8.072  0.00  0.00    +0.000 HD
ENDBRANCH  15  17
ENDBRANCH  14  15
ENDBRANCH   1   3
BRANCH   1  19
ATOM     19  N   ALA A   1       6.367   0.973  -3.028  0.00  0.00    +0.000 NA
ATOM     20  H   ALA A   1       6.798   0.098  -2.705  0.00  0.00    +0.000 HD
BRANCH  19  21
ATOM     21  C   UNK A   0       4.880   0.850  -2.969  0.00  0.00    +0.000 C 
BRANCH  21  22
ATOM     22  C   UNK A   0       4.037   2.090  -3.303  0.00  0.00    +0.000 C 
ATOM     23  O   UNK A   0       3.374   2.157  -4.338  0.00  0.00    +0.000 OA
BRANCH  22  24
ATOM     24  O   UNK A   0       4.054   3.073  -2.350  0.00  0.00    +0.000 OA
BRANCH  24  26
ATOM     25  C   UNK A   0       2.880   4.980  -1.392  0.00  0.00    +0.000 C 
ATOM     26  C   UNK A   0       3.057   4.076  -2.597  0.00  0.00    +0.000 C 
ENDBRANCH  24  26
ENDBRANCH  22  24
ENDBRANCH  21  22
BRANCH  21  27
ATOM     27  C   UNK A   0       4.439   0.466  -1.569  0.00  0.00    +0.000 C 
BRANCH  27  28
ATOM     28  C   UNK A   0       4.439  -1.033  -1.335  0.00  0.00    +0.000 C 
BRANCH  28  29
ATOM     29  C   UNK A   0       4.012  -1.364   0.071  0.00  0.00    +0.000 A 
ATOM     30  C   UNK A   0       4.168  -0.446   1.124  0.00  0.00    +0.000 A 
ATOM     31  C   UNK A   0       3.917  -0.808   2.437  0.00  0.00    +0.000 A 
ATOM     32  C   UNK A   0       3.417  -2.072   2.710  0.00  0.00    +0.000 A 
ATOM     33  C   UNK A   0       3.216  -2.986   1.675  0.00  0.00    +0.000 A 
ATOM     34  C   UNK A   0       3.525  -2.641   0.359  0.00  0.00    +0.000 A 
ENDBRANCH  28  29
ENDBRANCH  27  28
ENDBRANCH  21  27
ENDBRANCH  19  21
ENDBRANCH   1  19
TORSDOF 11
