REMARK  Name = Quinidine barbiturate
REMARK  9 active torsions:
REMARK  status: ('A' for Active; 'I' for Inactive)
REMARK    1  A    between atoms: C_1  and  C_2
REMARK    2  A    between atoms: C_2  and  C_3
REMARK    3  A    between atoms: C_3  and  C_12
REMARK    4  A    between atoms: C_18  and  O_19
REMARK    5  A    between atoms: O_19  and  C_20
REMARK    6  A    between atoms: C_23  and  C_30
REMARK    7  A    between atoms: C_30  and  O_31
REMARK    8  A    between atoms: C_30  and  C_32
REMARK    9  A    between atoms: C_39  and  C_40
REMARK                            x       y       z     vdW  Elec       q    Type
REMARK                         _______ _______ _______ _____ _____    ______ ____
ROOT
ATOM      1  C   UNL     1       3.098  -1.480  -0.554  0.00  0.00    +0.000 C 
ATOM      2  C   UNL     1       1.875  -2.287  -1.161  0.00  0.00    +0.000 C 
ATOM      3  O   UNL     1       1.169  -1.985  -2.131  0.00  0.00    +0.000 OA
ATOM      4  N   UNL     1       1.796  -3.597  -0.872  0.00  0.00    +0.000 N 
ATOM      5  C   UNL     1       2.427  -4.211   0.135  0.00  0.00    +0.000 C 
ATOM      6  O   UNL     1       2.222  -5.392   0.379  0.00  0.00    +0.000 OA
ATOM      7  N   UNL     1       3.284  -3.473   0.872  0.00  0.00    +0.000 N 
ATOM      8  C   UNL     1       3.849  -2.311   0.476  0.00  0.00    +0.000 C 
ATOM      9  O   UNL     1       4.860  -1.914   1.067  0.00  0.00    +0.000 OA
ATOM     10  H   UNL     1       1.215  -4.118  -1.513  0.00  0.00    +0.000 HD
ATOM     11  H   UNL     1       3.754  -3.936   1.630  0.00  0.00    +0.000 HD
ENDROOT
BRANCH   1  12
ATOM     12  C   UNL     1       3.866  -1.493  -2.013  0.00  0.00    +0.000 A 
ATOM     13  C   UNL     1       5.117  -2.105  -2.173  0.00  0.00    +0.000 A 
ATOM     14  C   UNL     1       5.848  -1.889  -3.381  0.00  0.00    +0.000 A 
ATOM     15  C   UNL     1       5.334  -1.085  -4.456  0.00  0.00    +0.000 A 
ATOM     16  C   UNL     1       4.040  -0.586  -4.385  0.00  0.00    +0.000 A 
ATOM     17  C   UNL     1       3.317  -0.844  -3.209  0.00  0.00    +0.000 A 
ENDBRANCH   1  12
BRANCH   1  19
ATOM     18  C   UNL     1       1.566   0.170   1.172  0.00  0.00    +0.000 C 
ATOM     19  C   UNL     1       2.940  -0.208   0.751  0.00  0.00    +0.000 C 
ENDBRANCH   1  19
TORSDOF 2
REMARK  Name = Quinidine barbiturate
REMARK  9 active torsions:
REMARK  status: ('A' for Active; 'I' for Inactive)
REMARK    1  A    between atoms: C_1  and  C_2
REMARK    2  A    between atoms: C_2  and  C_3
REMARK    3  A    between atoms: C_3  and  C_12
REMARK    4  A    between atoms: C_18  and  O_19
REMARK    5  A    between atoms: O_19  and  C_20
REMARK    6  A    between atoms: C_23  and  C_30
REMARK    7  A    between atoms: C_30  and  O_31
REMARK    8  A    between atoms: C_30  and  C_32
REMARK    9  A    between atoms: C_39  and  C_40
REMARK                            x       y       z     vdW  Elec       q    Type
REMARK                         _______ _______ _______ _____ _____    ______ ____
ROOT
ATOM      1  C   UNL     2       7.054   2.840  -3.393  0.00  0.00    +0.000 C 
ENDROOT
BRANCH   1   5
ATOM      2  C   UNL     2       2.356   1.488  -1.358  0.00  0.00    +0.000 A 
ATOM      3  C   UNL     2       3.826   1.432  -1.112  0.00  0.00    +0.000 A 
ATOM      4  C   UNL     2       4.938   2.437  -1.582  0.00  0.00    +0.000 A 
ATOM      5  C   UNL     2       6.498   2.165  -1.951  0.00  0.00    +0.000 A 
ATOM      6  C   UNL     2       6.802   0.915  -1.973  0.00  0.00    +0.000 A 
ATOM      7  C   UNL     2       5.759   0.719  -2.742  0.00  0.00    +0.000 A 
ATOM      8  N   UNL     2       4.660   1.727  -3.282  0.00  0.00    +0.000 NA
ATOM      9  C   UNL     2       4.346   2.835  -2.484  0.00  0.00    +0.000 A 
ATOM     10  C   UNL     2       3.092   3.519  -2.003  0.00  0.00    +0.000 A 
ATOM     11  C   UNL     2       2.074   2.766  -1.372  0.00  0.00    +0.000 A 
BRANCH   2  13
ATOM     12  C   UNL     2       0.019   0.224  -1.006  0.00  0.00    +0.000 C 
ATOM     13  O   UNL     2       1.467   0.423  -1.377  0.00  0.00    +0.000 OA
ENDBRANCH   2  13
ENDBRANCH   1   5
BRANCH   1  14
ATOM     14  C   UNL     2       8.417   2.256  -4.040  0.00  0.00    +0.000 C 
ATOM     15  C   UNL     2       8.620   0.710  -4.118  0.00  0.00    +0.000 C 
ATOM     16  C   UNL     2       9.655   0.268  -3.002  0.00  0.00    +0.000 C 
ATOM     17  C   UNL     2      10.962   0.771  -3.606  0.00  0.00    +0.000 C 
ATOM     18  C   UNL     2      10.811   2.289  -3.841  0.00  0.00    +0.000 C 
ATOM     19  N   UNL     2       9.556   2.840  -3.298  0.00  0.00    +0.000 NA
ATOM     20  C   UNL     2       9.483   2.518  -1.855  0.00  0.00    +0.000 C 
ATOM     21  C   UNL     2       9.584   1.006  -1.599  0.00  0.00    +0.000 C 
BRANCH  21  22
ATOM     22  C   UNL     2      10.660   0.686  -0.611  0.00  0.00    +0.000 C 
ATOM     23  C   UNL     2      10.857  -0.561  -0.174  0.00  0.00    +0.000 C 
ENDBRANCH  21  22
ENDBRANCH   1  14
BRANCH   1  24
ATOM     24  O   UNL     2       7.159   4.198  -3.012  0.00  0.00    +0.000 OA
ATOM     25  H   UNL     2       7.278   4.132  -2.049  0.00  0.00    +0.000 HD
ENDBRANCH   1  24
TORSDOF 5
