REMARK  Name = Quinidine
REMARK  6 active torsions:
REMARK  status: ('A' for Active; 'I' for Inactive)
REMARK    1  A    between atoms: C_7  and  C_8
REMARK    2  A    between atoms: C_10  and  C_13
REMARK    3  A    between atoms: C_13  and  O_14
REMARK    4  A    between atoms: C_13  and  C_15
REMARK    5  A    between atoms: C_18  and  O_19
REMARK    6  A    between atoms: O_19  and  C_20
REMARK                            x       y       z     vdW  Elec       q    Type
REMARK                         _______ _______ _______ _____ _____    ______ ____
ROOT
ATOM      1  C   UNL     1       3.664   2.360   1.951  0.00  0.00    +0.000 C 
ENDROOT
BRANCH   1   2
ATOM      2  C   UNL     1       2.085   2.859   2.115  0.00  0.00    +0.000 A 
ATOM      3  C   UNL     1       0.915   1.944   2.434  0.00  0.00    +0.000 A 
ATOM      4  C   UNL     1       0.898   0.592   2.993  0.00  0.00    +0.000 A 
ATOM      5  C   UNL     1      -0.148  -0.337   2.807  0.00  0.00    +0.000 A 
ATOM      6  C   UNL     1      -1.350   0.133   2.340  0.00  0.00    +0.000 A 
ATOM      7  C   UNL     1      -1.436   1.477   1.950  0.00  0.00    +0.000 A 
ATOM      8  C   UNL     1      -0.340   2.356   1.935  0.00  0.00    +0.000 A 
ATOM      9  N   UNL     1      -0.539   3.547   1.343  0.00  0.00    +0.000 NA
ATOM     10  C   UNL     1       0.510   4.379   1.154  0.00  0.00    +0.000 A 
ATOM     11  C   UNL     1       1.814   4.089   1.496  0.00  0.00    +0.000 A 
BRANCH   5  12
ATOM     12  O   UNL     1       0.179  -1.652   3.023  0.00  0.00    +0.000 OA
ATOM     13  C   UNL     1      -0.894  -2.586   3.100  0.00  0.00    +0.000 C 
ENDBRANCH   5  12
ENDBRANCH   1   2
BRANCH   1  20
ATOM     14  C   UNL     1       2.023  -0.187  -0.265  0.00  0.00    +0.000 C 
ATOM     15  C   UNL     1       2.617  -1.511   0.126  0.00  0.00    +0.000 C 
ATOM     16  C   UNL     1       4.155  -1.300   0.190  0.00  0.00    +0.000 C 
ATOM     17  N   UNL     1       4.611   0.162  -0.094  0.00  0.00    +0.000 NA
ATOM     18  C   UNL     1       4.080   0.484  -1.449  0.00  0.00    +0.000 C 
ATOM     19  C   UNL     1       2.531   0.375  -1.586  0.00  0.00    +0.000 C 
ATOM     20  C   UNL     1       4.026   0.998   1.005  0.00  0.00    +0.000 C 
ATOM     21  C   UNL     1       2.609   0.702   0.757  0.00  0.00    +0.000 C 
BRANCH  19  22
ATOM     22  C   UNL     1       1.938   1.731  -1.943  0.00  0.00    +0.000 C 
ATOM     23  C   UNL     1       2.150   2.289  -3.159  0.00  0.00    +0.000 C 
ENDBRANCH  19  22
ENDBRANCH   1  20
BRANCH   1  24
ATOM     24  O   UNL     1       4.528   3.441   1.621  0.00  0.00    +0.000 OA
ATOM     25  H   UNL     1       4.586   3.450   0.651  0.00  0.00    +0.000 HD
ENDBRANCH   1  24
TORSDOF 5
