REMARK  Name = Quinethazone
REMARK  4 active torsions:
REMARK  status: ('A' for Active; 'I' for Inactive)
REMARK    1  A    between atoms: C_1  and  C_2
REMARK    2  A    between atoms: C_2  and  C_3
REMARK    3  A    between atoms: C_9  and  S_15
REMARK    4  A    between atoms: S_15  and  N_16
REMARK                            x       y       z     vdW  Elec       q    Type
REMARK                         _______ _______ _______ _____ _____    ______ ____
ROOT
ATOM      1  C   UNL     1       3.051  -0.069   1.488  0.00  0.00    +0.000 C 
ATOM      2  N   UNL     1       2.480  -1.181   2.184  0.00  0.00    +0.000 N 
ATOM      3  C   UNL     1       2.990  -1.486   3.417  0.00  0.00    +0.000 C 
ATOM      4  O   UNL     1       3.157  -2.632   3.807  0.00  0.00    +0.000 OA
ATOM      5  C   UNL     1       3.224  -0.298   4.272  0.00  0.00    +0.000 A 
ATOM      6  C   UNL     1       3.456  -0.452   5.641  0.00  0.00    +0.000 A 
ATOM      7  C   UNL     1       3.554   0.686   6.449  0.00  0.00    +0.000 A 
ATOM      8  C   UNL     1       3.422   1.958   5.881  0.00  0.00    +0.000 A 
ATOM      9 CL   UNL     1       3.590   3.427   6.778  0.00  0.00    +0.000 Cl
ATOM     10  C   UNL     1       3.170   2.091   4.503  0.00  0.00    +0.000 A 
ATOM     11  C   UNL     1       3.056   0.968   3.682  0.00  0.00    +0.000 A 
ATOM     12  N   UNL     1       2.796   1.086   2.320  0.00  0.00    +0.000 N 
ATOM     13  H   UNL     1       1.990  -1.914   1.694  0.00  0.00    +0.000 HD
ATOM     14  H   UNL     1       2.552   1.970   1.898  0.00  0.00    +0.000 HD
ENDROOT
BRANCH   7  15
ATOM     15  S   UNL     1       3.807   0.459   8.188  0.00  0.00    +0.000 S 
ATOM     16  O   UNL     1       2.783   1.200   8.895  0.00  0.00    +0.000 OA
ATOM     17  O   UNL     1       4.045  -0.940   8.432  0.00  0.00    +0.000 OA
BRANCH  15  18
ATOM     18  N   UNL     1       5.268   1.223   8.440  0.00  0.00    +0.000 NA
ATOM     19  H   UNL     1       5.239   2.240   8.433  0.00  0.00    +0.000 HD
ATOM     20  H   UNL     1       6.092   0.730   8.110  0.00  0.00    +0.000 HD
ENDBRANCH  15  18
ENDBRANCH   7  15
BRANCH   1  22
ATOM     21  C   UNL     1       1.012   0.109  -0.024  0.00  0.00    +0.000 C 
ATOM     22  C   UNL     1       2.529   0.093   0.061  0.00  0.00    +0.000 C 
ENDBRANCH   1  22
TORSDOF 3
