REMARK  Name = Quinagolide
REMARK  11 active torsions:
REMARK  status: ('A' for Active; 'I' for Inactive)
REMARK    1  A    between atoms: C_4  and  N_21
REMARK    2  A    between atoms: N_6  and  C_7
REMARK    3  A    between atoms: C_7  and  C_8
REMARK    4  A    between atoms: C_8  and  C_9
REMARK    5  A    between atoms: C_17  and  O_18
REMARK    6  A    between atoms: N_21  and  S_22
REMARK    7  A    between atoms: S_22  and  N_25
REMARK    8  A    between atoms: N_25  and  C_26
REMARK    9  A    between atoms: N_25  and  C_28
REMARK   10  A    between atoms: C_26  and  C_27
REMARK   11  A    between atoms: C_28  and  C_29
REMARK                            x       y       z     vdW  Elec       q    Type
REMARK                         _______ _______ _______ _____ _____    ______ ____
ROOT
ATOM      1  C   UNL     1       2.074   0.069   0.046  0.00  0.00    +0.000 C 
ATOM      2  C   UNL     1       2.532   1.337   0.772  0.00  0.00    +0.000 C 
ATOM      3  C   UNL     1       2.142   2.576  -0.033  0.00  0.00    +0.000 C 
ATOM      4  C   UNL     1       2.769   2.481  -1.406  0.00  0.00    +0.000 C 
ATOM      5  N   UNL     1       2.250   1.301  -2.124  0.00  0.00    +0.000 NA
ATOM      6  C   UNL     1       2.607   0.049  -1.406  0.00  0.00    +0.000 C 
ATOM      7  C   UNL     1       2.046  -1.210  -2.096  0.00  0.00    +0.000 C 
ATOM      8  C   UNL     1       2.203  -2.478  -1.295  0.00  0.00    +0.000 A 
ATOM      9  C   UNL     1       2.077  -3.709  -1.952  0.00  0.00    +0.000 A 
ATOM     10  C   UNL     1       2.188  -4.904  -1.244  0.00  0.00    +0.000 A 
ATOM     11  C   UNL     1       2.426  -4.883   0.130  0.00  0.00    +0.000 A 
ATOM     12  C   UNL     1       2.541  -3.662   0.787  0.00  0.00    +0.000 A 
ATOM     13  C   UNL     1       2.413  -2.453   0.092  0.00  0.00    +0.000 A 
ATOM     14  C   UNL     1       2.545  -1.155   0.835  0.00  0.00    +0.000 C 
ENDROOT
BRANCH  12  15
ATOM     15  O   UNL     1       2.781  -3.610   2.133  0.00  0.00    +0.000 OA
ATOM     16  H   UNL     1       2.831  -4.514   2.483  0.00  0.00    +0.000 HD
ENDBRANCH  12  15
BRANCH   3  17
ATOM     17  N   UNL     1       0.647   2.636  -0.144  0.00  0.00    +0.000 NA
ATOM     18  H   UNL     1       0.358   2.584   0.812  0.00  0.00    +0.000 HD
BRANCH  17  19
ATOM     19  S   UNL     1       0.029   3.985  -0.923  0.00  0.00    +0.000 S 
ATOM     20  O   UNL     1       0.424   5.122  -0.133  0.00  0.00    +0.000 OA
ATOM     21  O   UNL     1       0.344   3.924  -2.333  0.00  0.00    +0.000 OA
BRANCH  19  22
ATOM     22  N   UNL     1      -1.672   3.857  -0.838  0.00  0.00    +0.000 NA
BRANCH  22  23
ATOM     23  C   UNL     1      -2.271   3.881   0.522  0.00  0.00    +0.000 C 
ATOM     24  C   UNL     1      -1.949   2.668   1.358  0.00  0.00    +0.000 C 
ENDBRANCH  22  23
BRANCH  22  25
ATOM     25  C   UNL     1      -2.249   4.980  -1.693  0.00  0.00    +0.000 C 
ATOM     26  C   UNL     1      -3.764   4.966  -1.791  0.00  0.00    +0.000 C 
ENDBRANCH  22  25
ENDBRANCH  19  22
ENDBRANCH  17  19
ENDBRANCH   3  17
BRANCH   5  27
ATOM     27  C   UNL     1       2.695   1.335  -3.515  0.00  0.00    +0.000 C 
BRANCH  27  28
ATOM     28  C   UNL     1       2.166   2.554  -4.277  0.00  0.00    +0.000 C 
ATOM     29  C   UNL     1       2.720   2.590  -5.680  0.00  0.00    +0.000 C 
ENDBRANCH  27  28
ENDBRANCH   5  27
TORSDOF 8
