REMARK  Name = Racephedrine
REMARK  6 active torsions:
REMARK  status: ('A' for Active; 'I' for Inactive)
REMARK    1  A    between atoms: C_1  and  N_2
REMARK    2  A    between atoms: N_2  and  C_3
REMARK    3  A    between atoms: C_3  and  C_4
REMARK    4  A    between atoms: C_3  and  C_5
REMARK    5  A    between atoms: C_5  and  O_6
REMARK    6  A    between atoms: C_5  and  C_7
REMARK                            x       y       z     vdW  Elec       q    Type
REMARK                         _______ _______ _______ _____ _____    ______ ____
ROOT
ATOM      1  C   UNL     1       4.539  -0.900  -1.057  0.00  0.00    +0.000 C 
ENDROOT
BRANCH   1   2
ATOM      2  C   UNL     1       5.053  -1.818  -2.150  0.00  0.00    +0.000 A 
ATOM      3  C   UNL     1       4.670  -3.170  -2.192  0.00  0.00    +0.000 A 
ATOM      4  C   UNL     1       5.112  -4.001  -3.219  0.00  0.00    +0.000 A 
ATOM      5  C   UNL     1       5.907  -3.484  -4.235  0.00  0.00    +0.000 A 
ATOM      6  C   UNL     1       6.286  -2.142  -4.215  0.00  0.00    +0.000 A 
ATOM      7  C   UNL     1       5.868  -1.314  -3.171  0.00  0.00    +0.000 A 
ENDBRANCH   1   2
BRANCH   1   8
ATOM      8  C   UNL     1       2.981  -0.834  -1.050  0.00  0.00    +0.000 C 
ATOM      9  C   UNL     1       2.482   0.028   0.111  0.00  0.00    +0.000 C 
BRANCH   8  11
ATOM     10  C   UNL     1       1.418  -1.131  -2.891  0.00  0.00    +0.000 C 
ATOM     11  N   UNL     1       2.473  -0.303  -2.329  0.00  0.00    +0.000 NA
ATOM     12  H   UNL     1       2.152   0.657  -2.225  0.00  0.00    +0.000 HD
ENDBRANCH   8  11
ENDBRANCH   1   8
BRANCH   1  13
ATOM     13  O   UNL     1       5.026  -1.362   0.209  0.00  0.00    +0.000 OA
ATOM     14  H   UNL     1       4.799  -2.303   0.280  0.00  0.00    +0.000 HD
ENDBRANCH   1  13
TORSDOF 4
