REMARK  Name = Racemethionine
REMARK  7 active torsions:
REMARK  status: ('A' for Active; 'I' for Inactive)
REMARK    1  A    between atoms: CE_1  and  SD_2
REMARK    2  A    between atoms: SD_2  and  CG_3
REMARK    3  A    between atoms: CG_3  and  CB_4
REMARK    4  A    between atoms: CB_4  and  CA_5
REMARK    5  A    between atoms: CA_5  and  N_6
REMARK    6  A    between atoms: CA_5  and  C_7
REMARK    7  A    between atoms: C_7  and  O_8
REMARK                            x       y       z     vdW  Elec       q    Type
REMARK                         _______ _______ _______ _____ _____    ______ ____
ROOT
ATOM      1  CA  MET A   1       5.481  -0.267   3.194  0.00  0.00    +0.000 C 
ENDROOT
BRANCH   1   2
ATOM      2  N   MET A   1       5.009  -1.497   3.854  0.00  0.00    +0.000 NA
ATOM      3  H1  MET A   1       5.310  -2.320   3.336  0.00  0.00    +0.000 HD
ATOM      4  H2  MET A   1       3.995  -1.525   3.918  0.00  0.00    +0.000 HD
ENDBRANCH   1   2
BRANCH   1   5
ATOM      5  C   MET A   1       7.035  -0.230   3.258  0.00  0.00    +0.000 C 
ATOM      6  OXT MET A   1       7.662  -0.284   4.312  0.00  0.00    +0.000 OA
BRANCH   5   7
ATOM      7  O   MET A   1       7.698  -0.146   2.084  0.00  0.00    +0.000 OA
ATOM      8  H   MET A   1       7.178  -0.119   1.262  0.00  0.00    +0.000 HD
ENDBRANCH   5   7
ENDBRANCH   1   5
BRANCH   1   9
ATOM      9  CB  MET A   1       4.898  -0.154   1.779  0.00  0.00    +0.000 C 
BRANCH   9  10
ATOM     10  CG  MET A   1       3.366  -0.125   1.729  0.00  0.00    +0.000 C 
BRANCH  10  12
ATOM     11  CE  MET A   1       1.070  -0.028   0.133  0.00  0.00    +0.000 C 
ATOM     12  SD  MET A   1       2.874   0.006  -0.023  0.00  0.00    +0.000 S 
ENDBRANCH  10  12
ENDBRANCH   9  10
ENDBRANCH   1   9
TORSDOF 6
