REMARK  Name = Radium Ra 223 dichloride
REMARK  0 active torsions:
REMARK  status: ('A' for Active; 'I' for Inactive)
REMARK                            x       y       z     vdW  Elec       q    Type
REMARK                         _______ _______ _______ _____ _____    ______ ____
ROOT
ATOM      1 CL   UNL     1       0.998  -0.088   0.047  0.00  0.00    +0.000 Cl
ENDROOT
TORSDOF 0
REMARK  Name = Radium Ra 223 dichloride
REMARK  0 active torsions:
REMARK  status: ('A' for Active; 'I' for Inactive)
REMARK                            x       y       z     vdW  Elec       q    Type
REMARK                         _______ _______ _______ _____ _____    ______ ____
ROOT
ATOM      1 CL   UNL     1       1.042  -0.066  -0.062  0.00  0.00    +0.000 Cl
ENDROOT
TORSDOF 0
REMARK  Name = Radium Ra 223 dichloride
REMARK  0 active torsions:
REMARK  status: ('A' for Active; 'I' for Inactive)
REMARK                            x       y       z     vdW  Elec       q    Type
REMARK                         _______ _______ _______ _____ _____    ______ ____
ROOT
ATOM      1 RA   UNL     1       1.073  -0.040  -0.055  0.00  0.00    +0.000 Ra
ENDROOT
TORSDOF 0
