REMARK  Name = Raloxifene
REMARK  9 active torsions:
REMARK  status: ('A' for Active; 'I' for Inactive)
REMARK    1  A    between atoms: O_1  and  C_2
REMARK    2  A    between atoms: C_5  and  C_8
REMARK    3  A    between atoms: C_9  and  C_10
REMARK    4  A    between atoms: C_10  and  C_12
REMARK    5  A    between atoms: C_15  and  O_16
REMARK    6  A    between atoms: O_16  and  C_17
REMARK    7  A    between atoms: C_17  and  C_18
REMARK    8  A    between atoms: C_18  and  N_19
REMARK    9  A    between atoms: C_31  and  O_32
REMARK                            x       y       z     vdW  Elec       q    Type
REMARK                         _______ _______ _______ _____ _____    ______ ____
ROOT
ATOM      1  C   UNL     1      -3.483   0.016  -0.231  0.00  0.00    +0.000 A 
ATOM      2  C   UNL     1      -4.042  -1.254   0.057  0.00  0.00    +0.000 A 
ATOM      3  C   UNL     1      -5.499  -1.143   0.194  0.00  0.00    +0.000 A 
ATOM      4  C   UNL     1      -6.051  -0.053  -0.479  0.00  0.00    +0.000 A 
ATOM      5  S   UNL     1      -4.769   1.115  -0.690  0.00  0.00    +0.000 S 
ATOM      6  C   UNL     1      -7.462  -0.021  -0.781  0.00  0.00    +0.000 A 
ATOM      7  C   UNL     1      -8.298  -0.963  -0.148  0.00  0.00    +0.000 A 
ATOM      8  C   UNL     1      -7.772  -1.909   0.706  0.00  0.00    +0.000 A 
ATOM      9  C   UNL     1      -6.396  -2.037   0.823  0.00  0.00    +0.000 A 
ENDROOT
BRANCH   1  13
ATOM     10  C   UNL     1       0.840   0.554  -0.447  0.00  0.00    +0.000 A 
ATOM     11  C   UNL     1       0.100   1.641  -0.023  0.00  0.00    +0.000 A 
ATOM     12  C   UNL     1      -1.338   1.583   0.001  0.00  0.00    +0.000 A 
ATOM     13  C   UNL     1      -2.032   0.415  -0.378  0.00  0.00    +0.000 A 
ATOM     14  C   UNL     1      -1.224  -0.552  -0.950  0.00  0.00    +0.000 A 
ATOM     15  C   UNL     1       0.168  -0.526  -0.938  0.00  0.00    +0.000 A 
BRANCH  10  16
ATOM     16  O   UNL     1       2.194   0.485  -0.496  0.00  0.00    +0.000 OA
ATOM     17  H   UNL     1       2.594   1.205   0.010  0.00  0.00    +0.000 HD
ENDBRANCH  10  16
ENDBRANCH   1  13
BRANCH   2  18
ATOM     18  C   UNL     1      -3.424  -2.632   0.165  0.00  0.00    +0.000 C 
ATOM     19  O   UNL     1      -4.124  -3.640  -0.084  0.00  0.00    +0.000 OA
BRANCH  18  20
ATOM     20  C   UNL     1      -1.998  -2.970   0.433  0.00  0.00    +0.000 A 
ATOM     21  C   UNL     1      -1.267  -2.315   1.424  0.00  0.00    +0.000 A 
ATOM     22  C   UNL     1       0.142  -2.403   1.438  0.00  0.00    +0.000 A 
ATOM     23  C   UNL     1       0.841  -3.166   0.489  0.00  0.00    +0.000 A 
ATOM     24  C   UNL     1       0.105  -3.846  -0.489  0.00  0.00    +0.000 A 
ATOM     25  C   UNL     1      -1.301  -3.761  -0.515  0.00  0.00    +0.000 A 
BRANCH  23  26
ATOM     26  O   UNL     1       2.200  -3.115   0.262  0.00  0.00    +0.000 OA
BRANCH  26  27
ATOM     27  C   UNL     1       2.963  -2.226   1.089  0.00  0.00    +0.000 C 
BRANCH  27  28
ATOM     28  C   UNL     1       4.469  -2.345   0.789  0.00  0.00    +0.000 C 
BRANCH  28  29
ATOM     29  N   UNL     1       5.261  -1.454   1.662  0.00  0.00    +0.000 NA
ATOM     30  C   UNL     1       6.679  -1.838   1.674  0.00  0.00    +0.000 C 
ATOM     31  C   UNL     1       7.440  -0.990   2.697  0.00  0.00    +0.000 C 
ATOM     32  C   UNL     1       7.296   0.501   2.410  0.00  0.00    +0.000 C 
ATOM     33  C   UNL     1       5.829   0.874   2.261  0.00  0.00    +0.000 C 
ATOM     34  C   UNL     1       5.134  -0.044   1.261  0.00  0.00    +0.000 C 
ENDBRANCH  28  29
ENDBRANCH  27  28
ENDBRANCH  26  27
ENDBRANCH  23  26
ENDBRANCH  18  20
ENDBRANCH   2  18
BRANCH   7  35
ATOM     35  O   UNL     1      -9.662  -1.010  -0.258  0.00  0.00    +0.000 OA
ATOM     36  H   UNL     1     -10.007  -0.357  -0.884  0.00  0.00    +0.000 HD
ENDBRANCH   7  35
TORSDOF 9
