REMARK  Name = Raltitrexed
REMARK  13 active torsions:
REMARK  status: ('A' for Active; 'I' for Inactive)
REMARK    1  A    between atoms: C_1  and  N_2
REMARK    2  A    between atoms: N_2  and  C_3
REMARK    3  A    between atoms: N_2  and  C_16
REMARK    4  A    between atoms: C_3  and  C_4
REMARK    5  A    between atoms: C_9  and  C_10
REMARK    6  A    between atoms: C_19  and  C_21
REMARK    7  A    between atoms: N_23  and  CA_24
REMARK    8  A    between atoms: CA_24  and  CB_25
REMARK    9  A    between atoms: CA_24  and  C_30
REMARK   10  A    between atoms: CB_25  and  CG_26
REMARK   11  A    between atoms: CG_26  and  CD_27
REMARK   12  A    between atoms: CD_27  and  OE1_28
REMARK   13  A    between atoms: C_30  and  O_31
REMARK                            x       y       z     vdW  Elec       q    Type
REMARK                         _______ _______ _______ _____ _____    ______ ____
ROOT
ATOM      1  C   UNK A   0       3.176  -0.888  -0.881  0.00  0.00    +0.000 A 
ATOM      2  C   UNK A   0       2.922  -1.193  -2.204  0.00  0.00    +0.000 A 
ATOM      3  C   UNK A   0       3.737  -2.232  -2.721  0.00  0.00    +0.000 A 
ATOM      4  C   UNK A   0       4.674  -2.668  -1.810  0.00  0.00    +0.000 A 
ATOM      5  S   UNK A   0       4.485  -1.848  -0.308  0.00  0.00    +0.000 S 
ENDROOT
BRANCH   4   6
ATOM      6  C   UNK A   0       5.737  -3.652  -1.973  0.00  0.00    +0.000 C 
ATOM      7  O   UNK A   0       6.660  -3.787  -1.177  0.00  0.00    +0.000 OA
ATOM      8  N   GLU A   1       5.634  -4.458  -3.109  0.00  0.00    +0.000 N 
ATOM      9  H   GLU A   1       4.921  -4.200  -3.761  0.00  0.00    +0.000 HD
BRANCH   8  10
ATOM     10  CA  GLU A   1       6.520  -5.609  -3.385  0.00  0.00    +0.000 C 
BRANCH  10  11
ATOM     11  C   GLU A   1       6.478  -6.183  -4.830  0.00  0.00    +0.000 C 
ATOM     12  OXT GLU A   1       7.169  -7.132  -5.182  0.00  0.00    +0.000 OA
BRANCH  11  13
ATOM     13  O   GLU A   1       5.596  -5.640  -5.693  0.00  0.00    +0.000 OA
ATOM     14  H   GLU A   1       5.061  -4.887  -5.410  0.00  0.00    +0.000 HD
ENDBRANCH  11  13
ENDBRANCH  10  11
BRANCH  10  15
ATOM     15  CB  GLU A   1       6.228  -6.814  -2.450  0.00  0.00    +0.000 C 
BRANCH  15  16
ATOM     16  CG  GLU A   1       6.333  -6.494  -0.964  0.00  0.00    +0.000 C 
BRANCH  16  17
ATOM     17  CD  GLU A   1       6.069  -7.570   0.049  0.00  0.00    +0.000 C 
ATOM     18  OE2 GLU A   1       6.121  -7.347   1.252  0.00  0.00    +0.000 OA
BRANCH  17  19
ATOM     19  OE1 GLU A   1       5.706  -8.771  -0.430  0.00  0.00    +0.000 OA
ATOM     20  HE1 GLU A   1       5.685  -8.858  -1.398  0.00  0.00    +0.000 HD
ENDBRANCH  17  19
ENDBRANCH  16  17
ENDBRANCH  15  16
ENDBRANCH  10  15
ENDBRANCH   8  10
ENDBRANCH   4   6
BRANCH   1  22
ATOM     21  C   UNK A   0       1.026   0.038  -0.270  0.00  0.00    +0.000 C 
ATOM     22  N   UNK A   0       2.476   0.016  -0.125  0.00  0.00    +0.000 N 
BRANCH  22  23
ATOM     23  C   UNK A   0       3.196   0.935   0.765  0.00  0.00    +0.000 C 
BRANCH  23  24
ATOM     24  C   UNK A   0       2.333   1.829   1.628  0.00  0.00    +0.000 A 
ATOM     25  C   UNK A   0       2.570   3.207   1.644  0.00  0.00    +0.000 A 
ATOM     26  C   UNK A   0       1.753   4.031   2.415  0.00  0.00    +0.000 A 
ATOM     27  C   UNK A   0       0.782   3.492   3.263  0.00  0.00    +0.000 A 
ATOM     28  N   UNK A   0       0.004   4.350   4.027  0.00  0.00    +0.000 N 
ATOM     29  C   UNK A   0       0.149   5.699   3.871  0.00  0.00    +0.000 A 
ATOM     30  C   UNK A   0      -0.767   6.574   4.679  0.00  0.00    +0.000 C 
ATOM     31  N   UNK A   0       1.005   6.286   3.093  0.00  0.00    +0.000 NA
ATOM     32  C   UNK A   0       1.858   5.508   2.344  0.00  0.00    +0.000 A 
ATOM     33  O   UNK A   0       2.701   5.993   1.585  0.00  0.00    +0.000 OA
ATOM     34  C   UNK A   0       0.607   2.117   3.325  0.00  0.00    +0.000 A 
ATOM     35  C   UNK A   0       1.331   1.301   2.465  0.00  0.00    +0.000 A 
ATOM     36  H   UNK A   0      -0.735   3.960   4.596  0.00  0.00    +0.000 HD
ENDBRANCH  23  24
ENDBRANCH  22  23
ENDBRANCH   1  22
TORSDOF 11
