REMARK  Name = Raltegravir
REMARK  11 active torsions:
REMARK  status: ('A' for Active; 'I' for Inactive)
REMARK    1  A    between atoms: C_1  and  N_2
REMARK    2  A    between atoms: C_5  and  O_6
REMARK    3  A    between atoms: C_7  and  C_22
REMARK    4  A    between atoms: C_9  and  C_10
REMARK    5  A    between atoms: C_10  and  C_11
REMARK    6  A    between atoms: C_10  and  C_12
REMARK    7  A    between atoms: C_10  and  N_13
REMARK    8  A    between atoms: C_14  and  C_16
REMARK    9  A    between atoms: C_19  and  C_20
REMARK   10  A    between atoms: N_24  and  C_25
REMARK   11  A    between atoms: C_25  and  C_26
REMARK                            x       y       z     vdW  Elec       q    Type
REMARK                         _______ _______ _______ _____ _____    ______ ____
ROOT
ATOM      1  C   UNL     1       1.027   0.145   0.061  0.00  0.00    +0.000 C 
ATOM      2  N   UNL     1       2.473   0.012   0.052  0.00  0.00    +0.000 N 
ATOM      3  C   UNL     1       3.126   1.223   0.053  0.00  0.00    +0.000 A 
ATOM      4  O   UNL     1       2.579   2.329   0.054  0.00  0.00    +0.000 OA
ATOM      5  C   UNL     1       4.591   1.214   0.053  0.00  0.00    +0.000 A 
ATOM      6  C   UNL     1       5.201   0.022   0.049  0.00  0.00    +0.000 A 
ATOM      7  N   UNL     1       4.510  -1.191   0.036  0.00  0.00    +0.000 NA
ATOM      8  C   UNL     1       3.192  -1.178   0.052  0.00  0.00    +0.000 A 
ENDROOT
BRANCH   6   9
ATOM      9  C   UNL     1       6.737   0.090   0.063  0.00  0.00    +0.000 C 
ATOM     10  O   UNL     1       7.387   1.132   0.068  0.00  0.00    +0.000 OA
ATOM     11  N   UNL     1       7.389  -1.114   0.069  0.00  0.00    +0.000 N 
ATOM     12  H   UNL     1       6.811  -1.938   0.080  0.00  0.00    +0.000 HD
BRANCH  11  13
ATOM     13  C   UNL     1       8.847  -1.161   0.080  0.00  0.00    +0.000 C 
BRANCH  13  14
ATOM     14  C   UNL     1       9.449  -2.549   0.084  0.00  0.00    +0.000 A 
ATOM     15  C   UNL     1      10.851  -2.699   0.102  0.00  0.00    +0.000 A 
ATOM     16  C   UNL     1      11.431  -3.973   0.109  0.00  0.00    +0.000 A 
ATOM     17  C   UNL     1      10.616  -5.097   0.100  0.00  0.00    +0.000 A 
ATOM     18  F   UNL     1      11.163  -6.319   0.109  0.00  0.00    +0.000 F 
ATOM     19  C   UNL     1       9.237  -4.975   0.081  0.00  0.00    +0.000 A 
ATOM     20  C   UNL     1       8.660  -3.709   0.071  0.00  0.00    +0.000 A 
ENDBRANCH  13  14
ENDBRANCH  11  13
ENDBRANCH   6   9
BRANCH   8  21
ATOM     21  C   UNL     1       2.428  -2.618   0.073  0.00  0.00    +0.000 C 
ATOM     22  C   UNL     1       2.831  -3.375  -1.209  0.00  0.00    +0.000 C 
ATOM     23  C   UNL     1       3.032  -3.358   1.270  0.00  0.00    +0.000 C 
BRANCH  21  24
ATOM     24  N   UNL     1       0.924  -2.613   0.157  0.00  0.00    +0.000 N 
ATOM     25  C   UNL     1       0.011  -3.649   0.114  0.00  0.00    +0.000 C 
ATOM     26  O   UNL     1      -0.947  -3.472  -0.654  0.00  0.00    +0.000 OA
ATOM     27  H   UNL     1       0.460  -1.920  -0.395  0.00  0.00    +0.000 HD
BRANCH  25  28
ATOM     28  C   UNL     1       0.139  -4.769   0.999  0.00  0.00    +0.000 A 
ATOM     29  N   UNL     1       0.907  -4.815   2.065  0.00  0.00    +0.000 NA
ATOM     30  N   UNL     1       0.801  -6.067   2.581  0.00  0.00    +0.000 NA
ATOM     31  C   UNL     1      -0.158  -6.649   1.903  0.00  0.00    +0.000 A 
ATOM     32  C   UNL     1      -0.796  -7.931   2.192  0.00  0.00    +0.000 C 
ATOM     33  O   UNL     1      -0.636  -5.893   0.866  0.00  0.00    +0.000 OA
ENDBRANCH  25  28
ENDBRANCH  21  24
ENDBRANCH   8  21
BRANCH   5  34
ATOM     34  O   UNL     1       5.205   2.449   0.057  0.00  0.00    +0.000 OA
ATOM     35  H   UNL     1       4.484   3.110   0.054  0.00  0.00    +0.000 HD
ENDBRANCH   5  34
TORSDOF 7
