REMARK  Name = Ramelteon
REMARK  5 active torsions:
REMARK  status: ('A' for Active; 'I' for Inactive)
REMARK    1  A    between atoms: C_1  and  C_2
REMARK    2  A    between atoms: C_2  and  C_3
REMARK    3  A    between atoms: N_5  and  C_6
REMARK    4  A    between atoms: C_6  and  C_7
REMARK    5  A    between atoms: C_7  and  C_8
REMARK                            x       y       z     vdW  Elec       q    Type
REMARK                         _______ _______ _______ _____ _____    ______ ____
ROOT
ATOM      1  C   UNL     1       7.091  -3.747  -2.369  0.00  0.00    +0.000 C 
ATOM      2  C   UNL     1       6.142  -4.600  -3.269  0.00  0.00    +0.000 C 
ATOM      3  C   UNL     1       6.108  -6.050  -2.723  0.00  0.00    +0.000 C 
ATOM      4  C   UNL     1       7.063  -6.037  -1.564  0.00  0.00    +0.000 A 
ATOM      5  C   UNL     1       7.606  -4.754  -1.392  0.00  0.00    +0.000 A 
ATOM      6  C   UNL     1       8.514  -4.626  -0.339  0.00  0.00    +0.000 A 
ATOM      7  C   UNL     1       8.736  -5.780   0.402  0.00  0.00    +0.000 A 
ATOM      8  O   UNL     1       9.638  -5.543   1.437  0.00  0.00    +0.000 OA
ATOM      9  C   UNL     1      10.012  -4.140   1.342  0.00  0.00    +0.000 C 
ATOM     10  C   UNL     1       9.283  -3.487   0.168  0.00  0.00    +0.000 C 
ATOM     11  C   UNL     1       8.189  -7.039   0.229  0.00  0.00    +0.000 A 
ATOM     12  C   UNL     1       7.302  -7.179  -0.814  0.00  0.00    +0.000 A 
ENDROOT
BRANCH   1  13
ATOM     13  C   UNL     1       6.490  -2.542  -1.625  0.00  0.00    +0.000 C 
BRANCH  13  14
ATOM     14  C   UNL     1       4.979  -2.528  -1.556  0.00  0.00    +0.000 C 
BRANCH  14  17
ATOM     15  C   UNL     1       3.092  -1.263  -0.729  0.00  0.00    +0.000 C 
ATOM     16  O   UNL     1       2.316  -2.066  -1.249  0.00  0.00    +0.000 OA
ATOM     17  N   UNL     1       4.457  -1.408  -0.810  0.00  0.00    +0.000 N 
ATOM     18  H   UNL     1       5.082  -0.731  -0.391  0.00  0.00    +0.000 HD
BRANCH  15  20
ATOM     19  C   UNL     1       1.108   0.012   0.064  0.00  0.00    +0.000 C 
ATOM     20  C   UNL     1       2.628  -0.043   0.033  0.00  0.00    +0.000 C 
ENDBRANCH  15  20
ENDBRANCH  14  17
ENDBRANCH  13  14
ENDBRANCH   1  13
TORSDOF 4
