REMARK  Name = Ramipril
REMARK  13 active torsions:
REMARK  status: ('A' for Active; 'I' for Inactive)
REMARK    1  A    between atoms: C_9  and  C_11
REMARK    2  A    between atoms: C_11  and  O_12
REMARK    3  A    between atoms: C_14  and  C_16
REMARK    4  A    between atoms: C_16  and  C_17
REMARK    5  A    between atoms: C_16  and  N_18
REMARK    6  A    between atoms: N_18  and  C_19
REMARK    7  A    between atoms: C_19  and  C_20
REMARK    8  A    between atoms: C_19  and  C_28
REMARK    9  A    between atoms: C_20  and  C_21
REMARK   10  A    between atoms: C_21  and  C_22
REMARK   11  A    between atoms: C_28  and  O_30
REMARK   12  A    between atoms: O_30  and  C_31
REMARK   13  A    between atoms: C_31  and  C_32
REMARK                            x       y       z     vdW  Elec       q    Type
REMARK                         _______ _______ _______ _____ _____    ______ ____
ROOT
ATOM      1  C   UNK A   1       4.506  -0.381  -3.580  0.00  0.00    +0.000 C 
ATOM      2  C   UNK A   1       4.834   0.752  -2.606  0.00  0.00    +0.000 C 
ENDROOT
BRANCH   1  11
ATOM      3  C   UNK A   1       1.142  -2.889  -1.893  0.00  0.00    +0.000 C 
ATOM      4  C   UNK A   1       0.533  -2.302  -0.636  0.00  0.00    +0.000 C 
ATOM      5  C   UNK A   1       1.757  -1.903   0.158  0.00  0.00    +0.000 C 
ATOM      6  C   UNK A   1       2.693  -1.309  -0.868  0.00  0.00    +0.000 C 
ATOM      7  C   UNK A   1       2.414  -2.052  -2.159  0.00  0.00    +0.000 C 
ATOM      8  N   UNK A   1       2.057  -1.049  -3.138  0.00  0.00    +0.000 N 
ATOM      9  C   UNK A   1       0.647  -1.264  -3.538  0.00  0.00    +0.000 C 
ATOM     10  C   UNK A   1       0.248  -2.668  -3.081  0.00  0.00    +0.000 C 
ATOM     11  C   UNK A   1       2.958  -0.153  -3.768  0.00  0.00    +0.000 C 
ATOM     12  O   UNK A   1       2.528   0.778  -4.454  0.00  0.00    +0.000 OA
BRANCH   9  13
ATOM     13  C   UNK A   1      -0.332  -0.140  -3.223  0.00  0.00    +0.000 C 
ATOM     14  O   UNK A   1      -1.510  -0.154  -3.505  0.00  0.00    +0.000 OA
BRANCH  13  15
ATOM     15  O   UNK A   1       0.268   0.905  -2.604  0.00  0.00    +0.000 OA
ATOM     16  H   UNK A   1       1.236   0.760  -2.617  0.00  0.00    +0.000 HD
ENDBRANCH  13  15
ENDBRANCH   9  13
ENDBRANCH   1  11
BRANCH   1  17
ATOM     17  N   UNK A   1       5.350  -0.230  -4.815  0.00  0.00    +0.000 NA
ATOM     18  H   UNK A   1       6.323  -0.081  -4.521  0.00  0.00    +0.000 HD
BRANCH  17  19
ATOM     19  C   UNK A   0       5.393  -1.318  -5.858  0.00  0.00    +0.000 C 
BRANCH  19  20
ATOM     20  C   UNK A   0       6.462  -0.990  -6.952  0.00  0.00    +0.000 C 
ATOM     21  O   UNK A   0       7.205  -0.023  -6.950  0.00  0.00    +0.000 OA
BRANCH  20  22
ATOM     22  O   UNK A   0       6.467  -1.966  -7.926  0.00  0.00    +0.000 OA
BRANCH  22  23
ATOM     23  C   UNK A   0       7.327  -1.702  -9.045  0.00  0.00    +0.000 C 
ATOM     24  C   UNK A   0       7.215  -2.828 -10.064  0.00  0.00    +0.000 C 
ENDBRANCH  22  23
ENDBRANCH  20  22
ENDBRANCH  19  20
BRANCH  19  25
ATOM     25  C   UNK A   0       4.099  -1.491  -6.662  0.00  0.00    +0.000 C 
BRANCH  25  26
ATOM     26  C   UNK A   0       3.032  -2.158  -5.881  0.00  0.00    +0.000 C 
BRANCH  26  27
ATOM     27  C   UNK A   0       1.645  -2.016  -6.434  0.00  0.00    +0.000 A 
ATOM     28  C   UNK A   0       0.956  -0.779  -6.612  0.00  0.00    +0.000 A 
ATOM     29  C   UNK A   0      -0.448  -0.775  -6.673  0.00  0.00    +0.000 A 
ATOM     30  C   UNK A   0      -1.140  -1.987  -6.683  0.00  0.00    +0.000 A 
ATOM     31  C   UNK A   0      -0.452  -3.193  -6.546  0.00  0.00    +0.000 A 
ATOM     32  C   UNK A   0       0.925  -3.205  -6.406  0.00  0.00    +0.000 A 
ENDBRANCH  26  27
ENDBRANCH  25  26
ENDBRANCH  19  25
ENDBRANCH  17  19
ENDBRANCH   1  17
TORSDOF 11
