REMARK  Name = Ranitidine
REMARK  13 active torsions:
REMARK  status: ('A' for Active; 'I' for Inactive)
REMARK    1  A    between atoms: C_1  and  N_2
REMARK    2  A    between atoms: N_2  and  C_3
REMARK    3  A    between atoms: C_3  and  N_4
REMARK    4  A    between atoms: N_4  and  C_5
REMARK    5  A    between atoms: C_5  and  C_6
REMARK    6  A    between atoms: C_6  and  S_7
REMARK    7  A    between atoms: S_7  and  C_8
REMARK    8  A    between atoms: C_8  and  C_9
REMARK    9  A    between atoms: C_12  and  C_13
REMARK   10  A    between atoms: C_13  and  N_14
REMARK   11  A    between atoms: N_14  and  C_15
REMARK   12  A    between atoms: N_14  and  C_16
REMARK   13  A    between atoms: C_18  and  N_19
REMARK                            x       y       z     vdW  Elec       q    Type
REMARK                         _______ _______ _______ _____ _____    ______ ____
ROOT
ATOM      1  C   UNL     1       0.386  -1.381  -3.905  0.00  0.00    +0.000 C 
ENDROOT
BRANCH   1   2
ATOM      2  C   UNL     1       0.898  -0.927  -2.550  0.00  0.00    +0.000 C 
BRANCH   2   3
ATOM      3  N   UNL     1       2.330  -0.879  -2.395  0.00  0.00    +0.000 N 
ATOM      4  H   UNL     1       2.890  -1.151  -3.208  0.00  0.00    +0.000 HD
BRANCH   3   5
ATOM      5  C   UNL     1       3.055  -0.497  -1.276  0.00  0.00    +0.000 C 
ATOM      6  C   UNL     1       4.408  -0.495  -1.273  0.00  0.00    +0.000 C 
BRANCH   5   8
ATOM      7  C   UNL     1       0.986  -0.005   0.166  0.00  0.00    +0.000 C 
ATOM      8  N   UNL     1       2.407  -0.098  -0.103  0.00  0.00    +0.000 N 
ATOM      9  H   UNL     1       2.994   0.171   0.681  0.00  0.00    +0.000 HD
ENDBRANCH   5   8
BRANCH   6  10
ATOM     10  N   UNL     1       5.210  -0.884  -2.416  0.00  0.00    +0.000 N 
ATOM     11  O   UNL     1       4.652  -1.243  -3.471  0.00  0.00    +0.000 OA
ATOM     12  O   UNL     1       6.432  -0.831  -2.261  0.00  0.00    +0.000 OA
ENDBRANCH   6  10
ENDBRANCH   3   5
ENDBRANCH   2   3
ENDBRANCH   1   2
BRANCH   1  13
ATOM     13  S   UNL     1      -1.441  -1.298  -3.726  0.00  0.00    +0.000 S 
BRANCH  13  14
ATOM     14  C   UNL     1      -1.969  -1.793  -5.376  0.00  0.00    +0.000 C 
BRANCH  14  15
ATOM     15  C   UNL     1      -3.447  -1.943  -5.420  0.00  0.00    +0.000 A 
ATOM     16  C   UNL     1      -4.198  -3.094  -5.461  0.00  0.00    +0.000 A 
ATOM     17  C   UNL     1      -5.525  -2.690  -5.607  0.00  0.00    +0.000 A 
ATOM     18  C   UNL     1      -5.559  -1.314  -5.495  0.00  0.00    +0.000 A 
ATOM     19  O   UNL     1      -4.269  -0.836  -5.421  0.00  0.00    +0.000 OA
BRANCH  18  20
ATOM     20  C   UNL     1      -6.731  -0.367  -5.423  0.00  0.00    +0.000 C 
BRANCH  20  21
ATOM     21  N   UNL     1      -8.018  -1.117  -5.382  0.00  0.00    +0.000 NA
ATOM     22  C   UNL     1      -8.164  -1.903  -4.149  0.00  0.00    +0.000 C 
ATOM     23  C   UNL     1      -9.170  -0.223  -5.489  0.00  0.00    +0.000 C 
ENDBRANCH  20  21
ENDBRANCH  18  20
ENDBRANCH  14  15
ENDBRANCH  13  14
ENDBRANCH   1  13
TORSDOF 10
