REMARK  Name = Ranolazine
REMARK  13 active torsions:
REMARK  status: ('A' for Active; 'I' for Inactive)
REMARK    1  A    between atoms: C_1  and  O_2
REMARK    2  A    between atoms: O_2  and  C_3
REMARK    3  A    between atoms: C_8  and  O_9
REMARK    4  A    between atoms: O_9  and  C_10
REMARK    5  A    between atoms: C_10  and  C_11
REMARK    6  A    between atoms: C_11  and  O_12
REMARK    7  A    between atoms: C_11  and  C_13
REMARK    8  A    between atoms: C_13  and  N_14
REMARK    9  A    between atoms: N_17  and  C_18
REMARK   10  A    between atoms: C_18  and  C_19
REMARK   11  A    between atoms: N_21  and  C_22
REMARK   12  A    between atoms: C_23  and  C_24
REMARK   13  A    between atoms: C_28  and  C_29
REMARK                            x       y       z     vdW  Elec       q    Type
REMARK                         _______ _______ _______ _____ _____    ______ ____
ROOT
ATOM      1  N   UNL     1      -2.361   1.144  -3.094  0.00  0.00    +0.000 NA
ATOM      2  C   UNL     1      -3.356   0.054  -2.952  0.00  0.00    +0.000 C 
ATOM      3  C   UNL     1      -3.935  -0.061  -1.525  0.00  0.00    +0.000 C 
ATOM      4  N   UNL     1      -4.586   1.191  -1.117  0.00  0.00    +0.000 NA
ATOM      5  C   UNL     1      -3.622   2.315  -1.255  0.00  0.00    +0.000 C 
ATOM      6  C   UNL     1      -2.991   2.409  -2.661  0.00  0.00    +0.000 C 
ENDROOT
BRANCH   1   7
ATOM      7  C   UNL     1      -1.148   0.860  -2.302  0.00  0.00    +0.000 C 
BRANCH   7   8
ATOM      8  C   UNL     1      -0.333  -0.314  -2.925  0.00  0.00    +0.000 C 
BRANCH   8   9
ATOM      9  O   UNL     1      -1.059  -1.551  -2.888  0.00  0.00    +0.000 OA
ATOM     10  H   UNL     1      -1.378  -1.676  -1.976  0.00  0.00    +0.000 HD
ENDBRANCH   8   9
BRANCH   8  11
ATOM     11  C   UNL     1       0.890  -0.569  -2.086  0.00  0.00    +0.000 C 
BRANCH  11  12
ATOM     12  O   UNL     1       1.809  -1.517  -2.545  0.00  0.00    +0.000 OA
BRANCH  12  18
ATOM     13  C   UNL     1       3.043  -1.168  -0.344  0.00  0.00    +0.000 A 
ATOM     14  C   UNL     1       4.176  -1.612   0.362  0.00  0.00    +0.000 A 
ATOM     15  C   UNL     1       5.004  -2.629  -0.134  0.00  0.00    +0.000 A 
ATOM     16  C   UNL     1       4.676  -3.283  -1.313  0.00  0.00    +0.000 A 
ATOM     17  C   UNL     1       3.556  -2.874  -2.024  0.00  0.00    +0.000 A 
ATOM     18  C   UNL     1       2.756  -1.805  -1.581  0.00  0.00    +0.000 A 
BRANCH  13  20
ATOM     19  C   UNL     1       1.178   0.137   0.590  0.00  0.00    +0.000 C 
ATOM     20  O   UNL     1       2.538   0.013   0.170  0.00  0.00    +0.000 OA
ENDBRANCH  13  20
ENDBRANCH  12  18
ENDBRANCH  11  12
ENDBRANCH   8  11
ENDBRANCH   7   8
ENDBRANCH   1   7
BRANCH   4  21
ATOM     21  C   UNL     1      -5.805   1.413  -1.940  0.00  0.00    +0.000 C 
BRANCH  21  22
ATOM     22  C   UNL     1      -6.589   2.606  -1.414  0.00  0.00    +0.000 C 
ATOM     23  O   UNL     1      -6.401   3.058  -0.273  0.00  0.00    +0.000 OA
ATOM     24  N   UNL     1      -7.519   3.124  -2.295  0.00  0.00    +0.000 N 
ATOM     25  H   UNL     1      -7.959   2.473  -2.936  0.00  0.00    +0.000 HD
BRANCH  24  26
ATOM     26  C   UNL     1      -8.222   4.318  -1.996  0.00  0.00    +0.000 A 
ATOM     27  C   UNL     1      -9.631   4.331  -2.026  0.00  0.00    +0.000 A 
ATOM     28  C   UNL     1     -10.466   3.077  -2.001  0.00  0.00    +0.000 C 
ATOM     29  C   UNL     1     -10.306   5.558  -1.898  0.00  0.00    +0.000 A 
ATOM     30  C   UNL     1      -9.607   6.733  -1.637  0.00  0.00    +0.000 A 
ATOM     31  C   UNL     1      -8.221   6.708  -1.552  0.00  0.00    +0.000 A 
ATOM     32  C   UNL     1      -7.512   5.514  -1.742  0.00  0.00    +0.000 A 
ATOM     33  C   UNL     1      -6.010   5.582  -1.678  0.00  0.00    +0.000 C 
ENDBRANCH  24  26
ENDBRANCH  21  22
ENDBRANCH   4  21
TORSDOF 10
