REMARK  Name = Rapacuronium
REMARK  13 active torsions:
REMARK  status: ('A' for Active; 'I' for Inactive)
REMARK    1  A    between atoms: C_4  and  N_39
REMARK    2  A    between atoms: C_5  and  O_6
REMARK    3  A    between atoms: O_6  and  C_7
REMARK    4  A    between atoms: C_7  and  C_9
REMARK    5  A    between atoms: C_9  and  C_10
REMARK    6  A    between atoms: C_11  and  C_12
REMARK    7  A    between atoms: C_24  and  O_25
REMARK    8  A    between atoms: O_25  and  C_26
REMARK    9  A    between atoms: C_26  and  C_27
REMARK   10  A    between atoms: C_29  and  N_33
REMARK   11  A    between atoms: C_31  and  C_32
REMARK   12  A    between atoms: N_39  and  C_40
REMARK   13  A    between atoms: C_40  and  C_41
REMARK                            x       y       z     vdW  Elec       q    Type
REMARK                         _______ _______ _______ _____ _____    ______ ____
ROOT
ATOM      1  C   UNL     1       2.008  -0.018  -0.139  0.00  0.00    +0.000 C 
ATOM      2  C   UNL     1       2.550  -1.270  -0.796  0.00  0.00    +0.000 C 
ATOM      3  C   UNL     1       2.640  -0.883  -2.292  0.00  0.00    +0.000 C 
ATOM      4  C   UNL     1       2.436   0.708  -2.344  0.00  0.00    +0.000 C 
ATOM      5  C   UNL     1       2.665   1.162  -0.885  0.00  0.00    +0.000 C 
ATOM      6  C   UNL     1       4.157   1.426  -0.543  0.00  0.00    +0.000 C 
ATOM      7  C   UNL     1       1.927   2.442  -0.497  0.00  0.00    +0.000 C 
ATOM      8  C   UNL     1       2.022   2.670   0.998  0.00  0.00    +0.000 C 
ATOM      9  C   UNL     1       1.574   1.432   1.807  0.00  0.00    +0.000 C 
ATOM     10  C   UNL     1       2.230   0.094   1.344  0.00  0.00    +0.000 C 
ATOM     11  C   UNL     1       1.727  -1.126   2.129  0.00  0.00    +0.000 C 
ATOM     12  C   UNL     1       1.754  -0.938   3.639  0.00  0.00    +0.000 C 
ATOM     13  C   UNL     1       0.985   0.334   3.947  0.00  0.00    +0.000 C 
ATOM     14  C   UNL     1       0.449   0.339   5.393  0.00  0.00    +0.000 C 
ATOM     15  C   UNL     1      -0.024   1.766   5.810  0.00  0.00    +0.000 C 
ATOM     16  C   UNL     1       0.850   3.030   5.345  0.00  0.00    +0.000 C 
ATOM     17  C   UNL     1       1.067   2.877   3.809  0.00  0.00    +0.000 C 
ATOM     18  C   UNL     1       1.797   1.583   3.339  0.00  0.00    +0.000 C 
ATOM     19  C   UNL     1       3.409   1.627   3.400  0.00  0.00    +0.000 C 
ENDROOT
BRANCH  16  20
ATOM     20  N   UNL     1       2.038   3.537   6.139  0.00  0.00    +0.000 NA
ATOM     21  C   UNL     1       3.237   2.754   5.982  0.00  0.00    +0.000 C 
ATOM     22  C   UNL     1       2.957   1.347   6.446  0.00  0.00    +0.000 C 
ATOM     23  C   UNL     1       2.337   1.252   7.852  0.00  0.00    +0.000 C 
ATOM     24  C   UNL     1       1.567   2.504   8.336  0.00  0.00    +0.000 C 
ATOM     25  C   UNL     1       1.956   3.753   7.572  0.00  0.00    +0.000 C 
ENDBRANCH  16  20
BRANCH   3  26
ATOM     26  N   UNL     1       3.974  -1.428  -2.965  0.00  0.00    +0.000 N 
ATOM     27  C   UNL     1       3.906  -1.111  -4.466  0.00  0.00    +0.000 C 
ATOM     28  C   UNL     1       5.224  -1.367  -5.165  0.00  0.00    +0.000 C 
ATOM     29  C   UNL     1       6.449  -0.789  -4.412  0.00  0.00    +0.000 C 
ATOM     30  C   UNL     1       6.501  -0.974  -2.897  0.00  0.00    +0.000 C 
ATOM     31  C   UNL     1       5.148  -0.746  -2.317  0.00  0.00    +0.000 C 
BRANCH  26  32
ATOM     32  C   UNL     1       4.053  -2.972  -2.742  0.00  0.00    +0.000 C 
BRANCH  32  33
ATOM     33  C   UNL     1       5.283  -3.636  -3.267  0.00  0.00    +0.000 C 
ATOM     34  C   UNL     1       5.674  -4.905  -3.240  0.00  0.00    +0.000 C 
ENDBRANCH  32  33
ENDBRANCH  26  32
ENDBRANCH   3  26
BRANCH   4  35
ATOM     35  O   UNL     1       3.315   1.364  -3.274  0.00  0.00    +0.000 OA
BRANCH  35  36
ATOM     36  C   UNL     1       3.116   2.674  -3.594  0.00  0.00    +0.000 C 
ATOM     37  O   UNL     1       2.219   3.344  -3.180  0.00  0.00    +0.000 OA
BRANCH  36  38
ATOM     38  C   UNL     1       4.185   3.139  -4.571  0.00  0.00    +0.000 C 
ATOM     39  C   UNL     1       4.045   4.643  -4.727  0.00  0.00    +0.000 C 
ENDBRANCH  36  38
ENDBRANCH  35  36
ENDBRANCH   4  35
BRANCH  15  40
ATOM     40  O   UNL     1      -1.378   1.892   5.314  0.00  0.00    +0.000 OA
BRANCH  40  41
ATOM     41  C   UNL     1      -2.253   2.818   5.767  0.00  0.00    +0.000 C 
ATOM     42  C   UNL     1      -1.772   4.018   6.541  0.00  0.00    +0.000 C 
ATOM     43  O   UNL     1      -3.438   2.722   5.458  0.00  0.00    +0.000 OA
ENDBRANCH  40  41
ENDBRANCH  15  40
TORSDOF 9
