REMARK  Name = Rasagiline
REMARK  3 active torsions:
REMARK  status: ('A' for Active; 'I' for Inactive)
REMARK    1  A    between atoms: C_2  and  C_3
REMARK    2  A    between atoms: C_3  and  N_4
REMARK    3  A    between atoms: N_4  and  C_5
REMARK                            x       y       z     vdW  Elec       q    Type
REMARK                         _______ _______ _______ _____ _____    ______ ____
ROOT
ATOM      1  C   UNL     1       5.770  -0.254   1.386  0.00  0.00    +0.000 C 
ATOM      2  C   UNL     1       6.482   0.292   0.111  0.00  0.00    +0.000 C 
ATOM      3  C   UNL     1       7.789  -0.478  -0.041  0.00  0.00    +0.000 C 
ATOM      4  C   UNL     1       7.433  -1.780   0.605  0.00  0.00    +0.000 A 
ATOM      5  C   UNL     1       8.105  -2.986   0.482  0.00  0.00    +0.000 A 
ATOM      6  C   UNL     1       7.639  -4.081   1.212  0.00  0.00    +0.000 A 
ATOM      7  C   UNL     1       6.537  -3.958   2.067  0.00  0.00    +0.000 A 
ATOM      8  C   UNL     1       5.868  -2.737   2.190  0.00  0.00    +0.000 A 
ATOM      9  C   UNL     1       6.308  -1.661   1.428  0.00  0.00    +0.000 A 
ENDROOT
BRANCH   1  10
ATOM     10  N   UNL     1       4.308  -0.168   1.402  0.00  0.00    +0.000 NA
ATOM     11  H   UNL     1       3.916  -1.006   1.827  0.00  0.00    +0.000 HD
BRANCH  10  12
ATOM     12  C   UNL     1       3.766  -0.037   0.073  0.00  0.00    +0.000 C 
BRANCH  12  14
ATOM     13  C   UNL     1       0.942  -0.037   0.073  0.00  0.00    +0.000 C 
ATOM     14  C   UNL     1       2.246  -0.037   0.073  0.00  0.00    +0.000 C 
ENDBRANCH  12  14
ENDBRANCH  10  12
ENDBRANCH   1  10
TORSDOF 3
