REMARK  Name = Rebamipide
REMARK  6 active torsions:
REMARK  status: ('A' for Active; 'I' for Inactive)
REMARK    1  A    between atoms: O_1  and  C_2
REMARK    2  A    between atoms: C_2  and  CA_4
REMARK    3  A    between atoms: CA_4  and  C_5
REMARK    4  A    between atoms: CA_4  and  N_17
REMARK    5  A    between atoms: C_5  and  C_6
REMARK    6  A    between atoms: C_18  and  C_20
REMARK                            x       y       z     vdW  Elec       q    Type
REMARK                         _______ _______ _______ _____ _____    ______ ____
ROOT
ATOM      1  CA  UNL     1       3.247  -1.098  -0.883  0.00  0.00    +0.000 C 
ENDROOT
BRANCH   1   2
ATOM      2  N   UNL     1       4.716  -0.964  -0.726  0.00  0.00    +0.000 N 
ATOM      3  C   UNL     1       5.612  -1.787  -1.375  0.00  0.00    +0.000 C 
ATOM      4  O   UNL     1       5.269  -2.713  -2.109  0.00  0.00    +0.000 OA
ATOM      5  H   UNL     1       5.041  -0.176  -0.168  0.00  0.00    +0.000 HD
BRANCH   3   6
ATOM      6  C   UNL     1       7.061  -1.509  -1.203  0.00  0.00    +0.000 A 
ATOM      7  C   UNL     1       7.605  -1.269   0.062  0.00  0.00    +0.000 A 
ATOM      8  C   UNL     1       8.985  -1.068   0.201  0.00  0.00    +0.000 A 
ATOM      9  C   UNL     1       9.816  -1.101  -0.920  0.00  0.00    +0.000 A 
ATOM     10 CL   UNL     1      11.505  -0.825  -0.741  0.00  0.00    +0.000 Cl
ATOM     11  C   UNL     1       9.284  -1.359  -2.182  0.00  0.00    +0.000 A 
ATOM     12  C   UNL     1       7.908  -1.572  -2.323  0.00  0.00    +0.000 A 
ENDBRANCH   3   6
ENDBRANCH   1   2
BRANCH   1  13
ATOM     13  C   UNL     1       2.571  -0.042   0.027  0.00  0.00    +0.000 C 
ATOM     14  OXT UNL     1       3.208   0.828   0.617  0.00  0.00    +0.000 OA
BRANCH  13  15
ATOM     15  O   UNL     1       1.232  -0.129   0.189  0.00  0.00    +0.000 OA
ATOM     16  H   UNL     1       0.748  -0.791  -0.342  0.00  0.00    +0.000 HD
ENDBRANCH  13  15
ENDBRANCH   1  13
BRANCH   1  17
ATOM     17  C   UNL     1       2.846  -0.967  -2.369  0.00  0.00    +0.000 C 
BRANCH  17  18
ATOM     18  C   UNL     1       1.375  -1.176  -2.612  0.00  0.00    +0.000 A 
ATOM     19  C   UNL     1       0.862  -2.419  -2.666  0.00  0.00    +0.000 A 
ATOM     20  C   UNL     1      -0.595  -2.662  -2.756  0.00  0.00    +0.000 A 
ATOM     21  O   UNL     1      -1.042  -3.804  -2.749  0.00  0.00    +0.000 OA
ATOM     22  N   UNL     1      -1.396  -1.556  -2.787  0.00  0.00    +0.000 N 
ATOM     23  C   UNL     1      -0.910  -0.241  -2.784  0.00  0.00    +0.000 A 
ATOM     24  C   UNL     1       0.471  -0.010  -2.709  0.00  0.00    +0.000 A 
ATOM     25  C   UNL     1       0.926   1.315  -2.640  0.00  0.00    +0.000 A 
ATOM     26  C   UNL     1       0.031   2.381  -2.672  0.00  0.00    +0.000 A 
ATOM     27  C   UNL     1      -1.334   2.137  -2.774  0.00  0.00    +0.000 A 
ATOM     28  C   UNL     1      -1.810   0.825  -2.822  0.00  0.00    +0.000 A 
ATOM     29  H   UNL     1      -2.391  -1.734  -2.826  0.00  0.00    +0.000 HD
ENDBRANCH  17  18
ENDBRANCH   1  17
TORSDOF 6
