REMARK  Name = Reboxetine
REMARK  7 active torsions:
REMARK  status: ('A' for Active; 'I' for Inactive)
REMARK    1  A    between atoms: C_2  and  C_8
REMARK    2  A    between atoms: C_8  and  O_9
REMARK    3  A    between atoms: C_8  and  C_19
REMARK    4  A    between atoms: O_9  and  C_10
REMARK    5  A    between atoms: C_15  and  O_16
REMARK    6  A    between atoms: O_16  and  C_17
REMARK    7  A    between atoms: C_17  and  C_18
REMARK                            x       y       z     vdW  Elec       q    Type
REMARK                         _______ _______ _______ _____ _____    ______ ____
ROOT
ATOM      1  C   UNL     1       2.395  -0.088  -1.517  0.00  0.00    +0.000 C 
ENDROOT
BRANCH   1   2
ATOM      2  C   UNL     1       2.235   1.394  -2.148  0.00  0.00    +0.000 C 
ATOM      3  C   UNL     1       0.855   1.962  -2.306  0.00  0.00    +0.000 C 
ATOM      4  N   UNL     1       0.391   2.167  -0.956  0.00  0.00    +0.000 NA
ATOM      5  C   UNL     1       1.182   2.862   0.048  0.00  0.00    +0.000 C 
ATOM      6  C   UNL     1       2.638   2.451  -0.028  0.00  0.00    +0.000 C 
ATOM      7  O   UNL     1       2.995   2.420  -1.408  0.00  0.00    +0.000 OA
ATOM      8  H   UNL     1       0.656   1.255  -0.616  0.00  0.00    +0.000 HD
ENDBRANCH   1   2
BRANCH   1   9
ATOM      9  C   UNL     1       4.006  -0.208  -1.432  0.00  0.00    +0.000 A 
ATOM     10  C   UNL     1       4.876   0.717  -2.103  0.00  0.00    +0.000 A 
ATOM     11  C   UNL     1       6.256   0.672  -2.136  0.00  0.00    +0.000 A 
ATOM     12  C   UNL     1       6.882  -0.371  -1.464  0.00  0.00    +0.000 A 
ATOM     13  C   UNL     1       6.087  -1.301  -0.794  0.00  0.00    +0.000 A 
ATOM     14  C   UNL     1       4.675  -1.241  -0.757  0.00  0.00    +0.000 A 
ENDBRANCH   1   9
BRANCH   1  15
ATOM     15  O   UNL     1       1.654  -0.469  -0.240  0.00  0.00    +0.000 OA
BRANCH  15  16
ATOM     16  C   UNL     1       0.295  -0.416   0.227  0.00  0.00    +0.000 A 
ATOM     17  C   UNL     1      -0.804  -0.166  -0.637  0.00  0.00    +0.000 A 
ATOM     18  C   UNL     1      -1.772   0.828  -0.243  0.00  0.00    +0.000 A 
ATOM     19  C   UNL     1      -1.875   1.290   1.058  0.00  0.00    +0.000 A 
ATOM     20  C   UNL     1      -0.996   0.761   2.009  0.00  0.00    +0.000 A 
ATOM     21  C   UNL     1       0.111  -0.051   1.596  0.00  0.00    +0.000 A 
BRANCH  21  22
ATOM     22  O   UNL     1       1.015  -0.250   2.625  0.00  0.00    +0.000 OA
BRANCH  22  23
ATOM     23  C   UNL     1       2.217  -0.933   2.281  0.00  0.00    +0.000 C 
ATOM     24  C   UNL     1       2.854  -1.542   3.507  0.00  0.00    +0.000 C 
ENDBRANCH  22  23
ENDBRANCH  21  22
ENDBRANCH  15  16
ENDBRANCH   1  15
TORSDOF 6
