REMARK  Name = Regadenoson
REMARK  7 active torsions:
REMARK  status: ('A' for Active; 'I' for Inactive)
REMARK    1  A    between atoms: C_1  and  N_2
REMARK    2  A    between atoms: C_3  and  C_5
REMARK    3  A    between atoms: N_16  and  C1*_17
REMARK    4  A    between atoms: C4*_19  and  C5*_20
REMARK    5  A    between atoms: C5*_20  and  O5*_21
REMARK    6  A    between atoms: C3*_22  and  O3*_23
REMARK    7  A    between atoms: C2*_24  and  O2*_25
REMARK                            x       y       z     vdW  Elec       q    Type
REMARK                         _______ _______ _______ _____ _____    ______ ____
ROOT
ATOM      1  C   UNL     1       4.722  -0.646   0.893  0.00  0.00    +0.000 A 
ATOM      2  C   UNL     1       5.588   0.417   0.697  0.00  0.00    +0.000 A 
ATOM      3  N   UNL     1       6.911  -0.070   0.657  0.00  0.00    +0.000 N 
ATOM      4  N   UNL     1       6.909  -1.413   0.917  0.00  0.00    +0.000 NA
ATOM      5  C   UNL     1       5.615  -1.726   1.094  0.00  0.00    +0.000 A 
ATOM      6  C   UNL     1       8.119   0.748   0.382  0.00  0.00    +0.000 A 
ATOM      7  N   UNL     1       7.972   2.053   0.711  0.00  0.00    +0.000 NA
ATOM      8  C   UNL     1       9.069   2.778   0.452  0.00  0.00    +0.000 A 
ATOM      9  C   UNL     1      10.200   2.405  -0.237  0.00  0.00    +0.000 A 
ATOM     10  N   UNL     1      11.097   3.458  -0.321  0.00  0.00    +0.000 NA
ATOM     11  C   UNL     1      10.572   4.401   0.437  0.00  0.00    +0.000 A 
ATOM     12  N   UNL     1       9.321   4.052   0.869  0.00  0.00    +0.000 N 
ATOM     13  C   UNL     1      10.227   1.082  -0.705  0.00  0.00    +0.000 A 
ATOM     14  N   UNL     1      11.171   0.704  -1.681  0.00  0.00    +0.000 N 
ATOM     15  N   UNL     1       9.226   0.230  -0.261  0.00  0.00    +0.000 NA
ATOM     16  H   UNL     1      11.624   1.533  -2.073  0.00  0.00    +0.000 HD
ATOM     17  H   UNL     1      11.878   0.069  -1.328  0.00  0.00    +0.000 HD
ENDROOT
BRANCH   1  20
ATOM     18  C   UNL     1       1.107   0.001  -0.069  0.00  0.00    +0.000 C 
ATOM     19  N   UNL     1       2.560   0.033  -0.001  0.00  0.00    +0.000 N 
ATOM     20  C   UNL     1       3.251  -0.695   0.961  0.00  0.00    +0.000 C 
ATOM     21  O   UNL     1       2.668  -1.381   1.785  0.00  0.00    +0.000 OA
ATOM     22  H   UNL     1       3.069   0.465  -0.757  0.00  0.00    +0.000 HD
ENDBRANCH   1  20
BRANCH  12  23
ATOM     23  C1* UNL     1       8.466   4.755   1.791  0.00  0.00    +0.000 C 
ATOM     24  O4* UNL     1       8.136   6.041   1.253  0.00  0.00    +0.000 OA
ATOM     25  C4* UNL     1       8.103   6.981   2.343  0.00  0.00    +0.000 C 
ATOM     26  C3* UNL     1       8.358   6.203   3.643  0.00  0.00    +0.000 C 
ATOM     27  C2* UNL     1       9.087   4.958   3.168  0.00  0.00    +0.000 C 
BRANCH  26  28
ATOM     28  O3* UNL     1       7.123   5.835   4.278  0.00  0.00    +0.000 OA
ATOM     29  H3* UNL     1       6.548   5.368   3.651  0.00  0.00    +0.000 HD
ENDBRANCH  26  28
BRANCH  27  30
ATOM     30  O2* UNL     1       8.911   3.830   4.020  0.00  0.00    +0.000 OA
ATOM     31  H2* UNL     1       7.965   3.750   4.242  0.00  0.00    +0.000 HD
ENDBRANCH  27  30
BRANCH  25  32
ATOM     32  C5* UNL     1       9.152   8.057   2.072  0.00  0.00    +0.000 C 
BRANCH  32  33
ATOM     33  O5* UNL     1       9.144   9.043   3.092  0.00  0.00    +0.000 OA
ATOM     34  H5* UNL     1       8.259   9.452   3.110  0.00  0.00    +0.000 HD
ENDBRANCH  32  33
ENDBRANCH  25  32
ENDBRANCH  12  23
TORSDOF 6
