REMARK  Name = Regorafenib
REMARK  7 active torsions:
REMARK  status: ('A' for Active; 'I' for Inactive)
REMARK    1  A    between atoms: C_1  and  N_2
REMARK    2  A    between atoms: C_3  and  C_5
REMARK    3  A    between atoms: C_7  and  O_8
REMARK    4  A    between atoms: O_8  and  C_9
REMARK    5  A    between atoms: C_13  and  N_14
REMARK    6  A    between atoms: N_17  and  C_18
REMARK    7  A    between atoms: C_23  and  C_25
REMARK                            x       y       z     vdW  Elec       q    Type
REMARK                         _______ _______ _______ _____ _____    ______ ____
ROOT
ATOM      1  C   UNL     1       6.791  -0.116   2.853  0.00  0.00    +0.000 A 
ATOM      2  C   UNL     1       6.025  -1.128   3.390  0.00  0.00    +0.000 A 
ATOM      3  C   UNL     1       5.328  -0.934   4.573  0.00  0.00    +0.000 A 
ATOM      4  F   UNL     1       4.560  -1.981   4.866  0.00  0.00    +0.000 F 
ATOM      5  C   UNL     1       5.412   0.244   5.345  0.00  0.00    +0.000 A 
ATOM      6  C   UNL     1       6.249   1.252   4.814  0.00  0.00    +0.000 A 
ATOM      7  C   UNL     1       6.935   1.067   3.578  0.00  0.00    +0.000 A 
ENDROOT
BRANCH   5   8
ATOM      8  N   UNL     1       4.725   0.444   6.612  0.00  0.00    +0.000 N 
ATOM      9  C   UNL     1       3.889  -0.500   7.201  0.00  0.00    +0.000 C 
ATOM     10  O   UNL     1       3.584  -1.570   6.681  0.00  0.00    +0.000 OA
ATOM     11  N   UNL     1       3.343  -0.197   8.444  0.00  0.00    +0.000 N 
ATOM     12  H   UNL     1       4.885   1.321   7.091  0.00  0.00    +0.000 HD
ATOM     13  H   UNL     1       3.220   0.773   8.690  0.00  0.00    +0.000 HD
BRANCH  11  14
ATOM     14  C   UNL     1       2.432  -1.159   9.021  0.00  0.00    +0.000 A 
ATOM     15  C   UNL     1       2.759  -2.524   9.053  0.00  0.00    +0.000 A 
ATOM     16  C   UNL     1       1.855  -3.484   9.514  0.00  0.00    +0.000 A 
ATOM     17  C   UNL     1       0.591  -3.107   9.959  0.00  0.00    +0.000 A 
ATOM     18 CL   UNL     1      -0.443  -4.389  10.480  0.00  0.00    +0.000 Cl
ATOM     19  C   UNL     1       0.229  -1.754   9.965  0.00  0.00    +0.000 A 
ATOM     20  C   UNL     1       1.172  -0.782   9.501  0.00  0.00    +0.000 A 
BRANCH  19  21
ATOM     21  C   UNL     1      -1.121  -1.273  10.440  0.00  0.00    +0.000 C 
ATOM     22  F   UNL     1      -0.995  -0.377  11.461  0.00  0.00    +0.000 F 
ATOM     23  F   UNL     1      -1.804  -0.613   9.461  0.00  0.00    +0.000 F 
ATOM     24  F   UNL     1      -1.981  -2.217  10.902  0.00  0.00    +0.000 F 
ENDBRANCH  19  21
ENDBRANCH  11  14
ENDBRANCH   5   8
BRANCH   1  25
ATOM     25  O   UNL     1       7.422  -0.275   1.640  0.00  0.00    +0.000 OA
BRANCH  25  28
ATOM     26  C   UNL     1       4.618  -0.954  -0.683  0.00  0.00    +0.000 A 
ATOM     27  C   UNL     1       5.264  -0.635   0.502  0.00  0.00    +0.000 A 
ATOM     28  C   UNL     1       6.660  -0.628   0.535  0.00  0.00    +0.000 A 
ATOM     29  C   UNL     1       7.359  -0.943  -0.628  0.00  0.00    +0.000 A 
ATOM     30  C   UNL     1       6.631  -1.244  -1.771  0.00  0.00    +0.000 A 
ATOM     31  N   UNL     1       5.280  -1.256  -1.826  0.00  0.00    +0.000 NA
BRANCH  26  34
ATOM     32  C   UNL     1       1.003   0.056  -0.017  0.00  0.00    +0.000 C 
ATOM     33  N   UNL     1       2.447   0.005  -0.024  0.00  0.00    +0.000 N 
ATOM     34  C   UNL     1       3.115  -1.000  -0.717  0.00  0.00    +0.000 C 
ATOM     35  O   UNL     1       2.524  -1.891  -1.317  0.00  0.00    +0.000 OA
ATOM     36  H   UNL     1       2.957   0.777   0.383  0.00  0.00    +0.000 HD
ENDBRANCH  26  34
ENDBRANCH  25  28
ENDBRANCH   1  25
TORSDOF 6
