REMARK  Name = Relebactam
REMARK  5 active torsions:
REMARK  status: ('A' for Active; 'I' for Inactive)
REMARK    1  A    between atoms: O_1  and  S_2
REMARK    2  A    between atoms: S_2  and  O_5
REMARK    3  A    between atoms: O_5  and  N_6
REMARK    4  A    between atoms: C_10  and  C_13
REMARK    5  A    between atoms: N_15  and  C_16
REMARK                            x       y       z     vdW  Elec       q    Type
REMARK                         _______ _______ _______ _____ _____    ______ ____
ROOT
ATOM      1  N   UNL     1       2.988   0.474   2.462  0.00  0.00    +0.000 N 
ATOM      2  C   UNL     1       1.557   0.754   2.374  0.00  0.00    +0.000 C 
ATOM      3  C   UNL     1       1.333  -0.795   2.231  0.00  0.00    +0.000 C 
ATOM      4  N   UNL     1       1.900  -1.356   3.379  0.00  0.00    +0.000 N 
ATOM      5  C   UNL     1       0.941  -1.102   4.502  0.00  0.00    +0.000 C 
ATOM      6  C   UNL     1       0.919   0.371   4.872  0.00  0.00    +0.000 C 
ATOM      7  C   UNL     1       0.656   1.180   3.600  0.00  0.00    +0.000 C 
ATOM      8  C   UNL     1       3.239  -0.771   3.113  0.00  0.00    +0.000 C 
ATOM      9  O   UNL     1       4.276  -1.407   2.982  0.00  0.00    +0.000 OA
ENDROOT
BRANCH   5  10
ATOM     10  C   UNL     1      -0.593  -1.327   4.103  0.00  0.00    +0.000 C 
ATOM     11  O   UNL     1      -1.090  -0.882   3.066  0.00  0.00    +0.000 OA
ATOM     12  N   UNL     1      -1.435  -1.904   4.996  0.00  0.00    +0.000 N 
ATOM     13  H   UNL     1      -1.094  -2.093   5.927  0.00  0.00    +0.000 HD
BRANCH  12  14
ATOM     14  C   UNL     1      -2.861  -2.141   4.668  0.00  0.00    +0.000 C 
ATOM     15  C   UNL     1      -3.126  -2.573   3.206  0.00  0.00    +0.000 C 
ATOM     16  C   UNL     1      -2.348  -3.851   2.914  0.00  0.00    +0.000 C 
ATOM     17  N   UNL     1      -2.818  -4.926   3.789  0.00  0.00    +0.000 NA
ATOM     18  C   UNL     1      -2.666  -4.580   5.206  0.00  0.00    +0.000 C 
ATOM     19  C   UNL     1      -3.380  -3.270   5.558  0.00  0.00    +0.000 C 
ATOM     20  H   UNL     1      -2.280  -5.768   3.587  0.00  0.00    +0.000 HD
ENDBRANCH  12  14
ENDBRANCH   5  10
BRANCH   1  21
ATOM     21  O   UNL     1       3.603   0.721   1.160  0.00  0.00    +0.000 OA
BRANCH  21  22
ATOM     22  S   UNL     1       3.021  -0.043  -0.217  0.00  0.00    +0.000 S 
ATOM     23  O   UNL     1       3.302  -1.474  -0.098  0.00  0.00    +0.000 OA
ATOM     24  O   UNL     1       3.390   0.663  -1.399  0.00  0.00    +0.000 OA
BRANCH  22  25
ATOM     25  O   UNL     1       1.395   0.092  -0.159  0.00  0.00    +0.000 OA
ATOM     26  H   UNL     1       0.984  -0.674  -0.618  0.00  0.00    +0.000 HD
ENDBRANCH  22  25
ENDBRANCH  21  22
ENDBRANCH   1  21
TORSDOF 5
