REMARK  Name = Relugolix
REMARK  13 active torsions:
REMARK  status: ('A' for Active; 'I' for Inactive)
REMARK    1  A    between atoms: C_1  and  O_2
REMARK    2  A    between atoms: O_2  and  N_3
REMARK    3  A    between atoms: N_6  and  C_7
REMARK    4  A    between atoms: C_10  and  C_13
REMARK    5  A    between atoms: C_14  and  C_15
REMARK    6  A    between atoms: C_15  and  N_16
REMARK    7  A    between atoms: N_16  and  C_17
REMARK    8  A    between atoms: N_16  and  C_18
REMARK    9  A    between atoms: N_22  and  C_23
REMARK   10  A    between atoms: C_23  and  C_24
REMARK   11  A    between atoms: N_34  and  C_37
REMARK   12  A    between atoms: C_40  and  O_41
REMARK   13  A    between atoms: O_41  and  C_42
REMARK                            x       y       z     vdW  Elec       q    Type
REMARK                         _______ _______ _______ _____ _____    ______ ____
ROOT
ATOM      1  C   UNL     1      10.539   3.541   1.954  0.00  0.00    +0.000 A 
ATOM      2  C   UNL     1      11.206   4.483   1.176  0.00  0.00    +0.000 A 
ATOM      3  C   UNL     1      12.568   4.684   1.622  0.00  0.00    +0.000 A 
ATOM      4  C   UNL     1      13.011   3.711   2.460  0.00  0.00    +0.000 A 
ATOM      5  S   UNL     1      11.693   2.773   3.030  0.00  0.00    +0.000 S 
ATOM      6  N   UNL     1      14.373   3.577   2.796  0.00  0.00    +0.000 N 
ATOM      7  C   UNL     1      15.321   4.310   1.992  0.00  0.00    +0.000 A 
ATOM      8  O   UNL     1      16.540   4.156   2.082  0.00  0.00    +0.000 OA
ATOM      9  N   UNL     1      14.826   5.319   1.171  0.00  0.00    +0.000 N 
ATOM     10  C   UNL     1      13.502   5.707   1.215  0.00  0.00    +0.000 A 
ATOM     11  O   UNL     1      13.087   6.838   0.947  0.00  0.00    +0.000 OA
ENDROOT
BRANCH   1  15
ATOM     12  C   UNL     1       6.247   2.625   1.588  0.00  0.00    +0.000 A 
ATOM     13  C   UNL     1       6.777   3.133   2.781  0.00  0.00    +0.000 A 
ATOM     14  C   UNL     1       8.166   3.439   2.904  0.00  0.00    +0.000 A 
ATOM     15  C   UNL     1       9.076   3.190   1.864  0.00  0.00    +0.000 A 
ATOM     16  C   UNL     1       8.506   2.739   0.656  0.00  0.00    +0.000 A 
ATOM     17  C   UNL     1       7.127   2.460   0.522  0.00  0.00    +0.000 A 
BRANCH  12  21
ATOM     18  N   UNL     1       3.005   1.140   0.666  0.00  0.00    +0.000 N 
ATOM     19  C   UNL     1       4.387   1.236   0.716  0.00  0.00    +0.000 C 
ATOM     20  O   UNL     1       5.123   0.402   0.194  0.00  0.00    +0.000 OA
ATOM     21  N   UNL     1       4.856   2.339   1.437  0.00  0.00    +0.000 N 
ATOM     22  H   UNL     1       2.348   1.794   1.060  0.00  0.00    +0.000 HD
ATOM     23  H   UNL     1       4.206   2.835   2.028  0.00  0.00    +0.000 HD
BRANCH  18  25
ATOM     24  C   UNL     1       1.088  -0.023  -0.038  0.00  0.00    +0.000 C 
ATOM     25  O   UNL     1       2.511   0.001  -0.029  0.00  0.00    +0.000 OA
ENDBRANCH  18  25
ENDBRANCH  12  21
ENDBRANCH   1  15
BRANCH   9  26
ATOM     26  C   UNL     1      15.770   6.193   0.516  0.00  0.00    +0.000 A 
ATOM     27  C   UNL     1      15.554   7.568   0.538  0.00  0.00    +0.000 A 
ATOM     28  C   UNL     1      16.331   8.444  -0.196  0.00  0.00    +0.000 A 
ATOM     29  C   UNL     1      17.385   7.940  -0.907  0.00  0.00    +0.000 A 
ATOM     30  N   UNL     1      17.665   6.621  -0.907  0.00  0.00    +0.000 NA
ATOM     31  N   UNL     1      16.840   5.735  -0.182  0.00  0.00    +0.000 NA
BRANCH  29  32
ATOM     32  O   UNL     1      18.119   8.888  -1.586  0.00  0.00    +0.000 OA
ATOM     33  C   UNL     1      19.238   8.384  -2.285  0.00  0.00    +0.000 C 
ENDBRANCH  29  32
ENDBRANCH   9  26
BRANCH   2  34
ATOM     34  C   UNL     1      10.554   5.208   0.027  0.00  0.00    +0.000 C 
BRANCH  34  35
ATOM     35  N   UNL     1      11.543   5.867  -0.804  0.00  0.00    +0.000 NA
ATOM     36  C   UNL     1      12.508   5.013  -1.484  0.00  0.00    +0.000 C 
ATOM     37  C   UNL     1      10.973   6.865  -1.680  0.00  0.00    +0.000 C 
ENDBRANCH  34  35
ENDBRANCH   2  34
BRANCH   6  38
ATOM     38  C   UNL     1      14.862   2.706   3.888  0.00  0.00    +0.000 C 
BRANCH  38  39
ATOM     39  C   UNL     1      16.311   2.849   4.284  0.00  0.00    +0.000 A 
ATOM     40  C   UNL     1      17.219   1.808   4.089  0.00  0.00    +0.000 A 
ATOM     41  F   UNL     1      16.806   0.650   3.553  0.00  0.00    +0.000 F 
ATOM     42  C   UNL     1      18.573   1.963   4.383  0.00  0.00    +0.000 A 
ATOM     43  C   UNL     1      19.066   3.216   4.752  0.00  0.00    +0.000 A 
ATOM     44  C   UNL     1      18.186   4.286   4.900  0.00  0.00    +0.000 A 
ATOM     45  C   UNL     1      16.820   4.082   4.720  0.00  0.00    +0.000 A 
ATOM     46  F   UNL     1      16.000   5.143   4.799  0.00  0.00    +0.000 F 
ENDBRANCH  38  39
ENDBRANCH   6  38
TORSDOF 9
