REMARK  Name = Remdesivir
REMARK  20 active torsions:
REMARK  status: ('A' for Active; 'I' for Inactive)
REMARK    1  A    between atoms: C_1  and  C_2
REMARK    2  A    between atoms: C_2  and  C_3
REMARK    3  A    between atoms: C_3  and  C_4
REMARK    4  A    between atoms: C_3  and  C_6
REMARK    5  A    between atoms: C_4  and  C_5
REMARK    6  A    between atoms: C_6  and  O_7
REMARK    7  A    between atoms: O_7  and  C_8
REMARK    8  A    between atoms: C_8  and  C_10
REMARK    9  A    between atoms: C_10  and  C_11
REMARK   10  A    between atoms: C_10  and  N_12
REMARK   11  A    between atoms: N_12  and  P_13
REMARK   12  A    between atoms: P_13  and  O_15
REMARK   13  A    between atoms: P_13  and  O_36
REMARK   14  A    between atoms: O_15  and  C_16
REMARK   15  A    between atoms: C_16  and  C_17
REMARK   16  A    between atoms: C_19  and  C_20
REMARK   17  A    between atoms: C_19  and  C_26
REMARK   18  A    between atoms: C_22  and  O_23
REMARK   19  A    between atoms: C_24  and  O_25
REMARK   20  A    between atoms: O_36  and  C_37
REMARK                            x       y       z     vdW  Elec       q    Type
REMARK                         _______ _______ _______ _____ _____    ______ ____
ROOT
ATOM      1  C   UNL     1       4.251   1.544   4.983  0.00  0.00    +0.000 C 
ENDROOT
BRANCH   1   2
ATOM      2  C   UNL     1       5.186   1.551   6.162  0.00  0.00    +0.000 C 
ATOM      3  O   UNL     1       4.783   2.635   7.021  0.00  0.00    +0.000 OA
ATOM      4  C   UNL     1       4.039   2.080   8.121  0.00  0.00    +0.000 C 
ATOM      5  C   UNL     1       3.942   0.554   7.892  0.00  0.00    +0.000 C 
ATOM      6  C   UNL     1       5.123   0.270   6.968  0.00  0.00    +0.000 C 
BRANCH   4   7
ATOM      7  C   UNL     1       2.702   2.796   8.237  0.00  0.00    +0.000 A 
ATOM      8  C   UNL     1       2.226   3.454   9.370  0.00  0.00    +0.000 A 
ATOM      9  C   UNL     1       0.929   3.915   9.131  0.00  0.00    +0.000 A 
ATOM     10  C   UNL     1       0.644   3.603   7.836  0.00  0.00    +0.000 A 
ATOM     11  N   UNL     1       1.716   2.974   7.273  0.00  0.00    +0.000 N 
ATOM     12  N   UNL     1       1.742   2.714   5.963  0.00  0.00    +0.000 NA
ATOM     13  C   UNL     1       0.707   3.140   5.302  0.00  0.00    +0.000 A 
ATOM     14  N   UNL     1      -0.407   3.748   5.768  0.00  0.00    +0.000 NA
ATOM     15  C   UNL     1      -0.485   3.932   7.039  0.00  0.00    +0.000 A 
ATOM     16  N   UNL     1      -1.637   4.440   7.528  0.00  0.00    +0.000 N 
ATOM     17  H   UNL     1      -2.415   4.542   6.892  0.00  0.00    +0.000 HD
ATOM     18  H   UNL     1      -1.704   4.764   8.477  0.00  0.00    +0.000 HD
ENDBRANCH   4   7
BRANCH   6  19
ATOM     19  O   UNL     1       6.333   0.072   7.711  0.00  0.00    +0.000 OA
ATOM     20  H   UNL     1       6.627   0.913   8.104  0.00  0.00    +0.000 HD
ENDBRANCH   6  19
BRANCH   4  21
ATOM     21  C   UNL     1       4.839   2.332   9.373  0.00  0.00    +0.000 C 
ATOM     22  N   UNL     1       5.428   2.476  10.346  0.00  0.00    +0.000 NA
ENDBRANCH   4  21
BRANCH   5  23
ATOM     23  O   UNL     1       3.960  -0.261   9.065  0.00  0.00    +0.000 OA
ATOM     24  H   UNL     1       4.855  -0.208   9.455  0.00  0.00    +0.000 HD
ENDBRANCH   5  23
ENDBRANCH   1   2
BRANCH   1  25
ATOM     25  O   UNL     1       3.084   0.641   5.104  0.00  0.00    +0.000 OA
BRANCH  25  26
ATOM     26  P   UNL     1       1.887   0.903   3.940  0.00  0.00    +0.000 P 
ATOM     27  O   UNL     1       2.977   1.486   3.007  0.00  0.00    +0.000 OA
BRANCH  26  28
ATOM     28  N   UNL     1       1.835  -0.575   3.026  0.00  0.00    +0.000 NA
ATOM     29  H   UNL     1       1.722  -1.371   3.643  0.00  0.00    +0.000 HD
BRANCH  28  30
ATOM     30  C   UNL     1       2.973  -0.832   2.085  0.00  0.00    +0.000 C 
ATOM     31  C   UNL     1       4.249  -1.096   2.860  0.00  0.00    +0.000 C 
BRANCH  30  32
ATOM     32  C   UNL     1       2.798  -2.006   1.147  0.00  0.00    +0.000 C 
ATOM     33  O   UNL     1       3.142  -1.980  -0.031  0.00  0.00    +0.000 OA
BRANCH  32  34
ATOM     34  O   UNL     1       2.361  -3.116   1.802  0.00  0.00    +0.000 OA
BRANCH  34  35
ATOM     35  C   UNL     1       2.326  -4.295   0.984  0.00  0.00    +0.000 C 
BRANCH  35  36
ATOM     36  C   UNL     1       1.848  -5.498   1.832  0.00  0.00    +0.000 C 
BRANCH  36  37
ATOM     37  C   UNL     1       2.826  -5.716   3.012  0.00  0.00    +0.000 C 
ATOM     38  C   UNL     1       2.410  -6.774   4.022  0.00  0.00    +0.000 C 
ENDBRANCH  36  37
BRANCH  36  40
ATOM     39  C   UNL     1       1.094  -7.967   1.563  0.00  0.00    +0.000 C 
ATOM     40  C   UNL     1       1.702  -6.732   0.914  0.00  0.00    +0.000 C 
ENDBRANCH  36  40
ENDBRANCH  35  36
ENDBRANCH  34  35
ENDBRANCH  32  34
ENDBRANCH  30  32
ENDBRANCH  28  30
ENDBRANCH  26  28
BRANCH  26  41
ATOM     41  O   UNL     1       0.670   0.250   4.981  0.00  0.00    +0.000 OA
BRANCH  41  42
ATOM     42  C   UNL     1      -0.651   0.659   5.000  0.00  0.00    +0.000 A 
ATOM     43  C   UNL     1      -1.244   0.824   6.266  0.00  0.00    +0.000 A 
ATOM     44  C   UNL     1      -2.454   1.525   6.398  0.00  0.00    +0.000 A 
ATOM     45  C   UNL     1      -3.079   2.053   5.270  0.00  0.00    +0.000 A 
ATOM     46  C   UNL     1      -2.518   1.839   4.009  0.00  0.00    +0.000 A 
ATOM     47  C   UNL     1      -1.319   1.120   3.868  0.00  0.00    +0.000 A 
ENDBRANCH  41  42
ENDBRANCH  26  41
ENDBRANCH  25  26
ENDBRANCH   1  25
TORSDOF 17
