REMARK  Name = Remimazolam
REMARK  7 active torsions:
REMARK  status: ('A' for Active; 'I' for Inactive)
REMARK    1  A    between atoms: C_1  and  O_2
REMARK    2  A    between atoms: O_2  and  C_3
REMARK    3  A    between atoms: C_3  and  C_5
REMARK    4  A    between atoms: C_5  and  C_6
REMARK    5  A    between atoms: C_6  and  C_7
REMARK    6  A    between atoms: C_9  and  C_10
REMARK    7  A    between atoms: C_24  and  C_25
REMARK                            x       y       z     vdW  Elec       q    Type
REMARK                         _______ _______ _______ _____ _____    ______ ____
ROOT
ATOM      1  C   UNL     1       6.660  -2.164   1.485  0.00  0.00    +0.000 C 
ATOM      2  N   UNL     1       7.103  -3.535   1.750  0.00  0.00    +0.000 NA
ATOM      3  C   UNL     1       8.358  -3.841   1.774  0.00  0.00    +0.000 C 
ATOM      4  C   UNL     1       9.497  -2.877   1.552  0.00  0.00    +0.000 A 
ATOM      5  C   UNL     1      10.607  -3.321   0.806  0.00  0.00    +0.000 A 
ATOM      6  C   UNL     1      11.735  -2.509   0.649  0.00  0.00    +0.000 A 
ATOM      7 BR   UNL     1      13.213  -3.118  -0.358  0.00  0.00    +0.000 Br
ATOM      8  C   UNL     1      11.780  -1.243   1.214  0.00  0.00    +0.000 A 
ATOM      9  C   UNL     1      10.679  -0.777   1.923  0.00  0.00    +0.000 A 
ATOM     10  C   UNL     1       9.546  -1.588   2.117  0.00  0.00    +0.000 A 
ATOM     11  N   UNL     1       8.465  -1.054   2.861  0.00  0.00    +0.000 N 
ATOM     12  C   UNL     1       8.511  -0.178   3.940  0.00  0.00    +0.000 A 
ATOM     13  C   UNL     1       9.706   0.277   4.693  0.00  0.00    +0.000 C 
ATOM     14  C   UNL     1       7.194   0.108   4.225  0.00  0.00    +0.000 A 
ATOM     15  N   UNL     1       6.355  -0.542   3.381  0.00  0.00    +0.000 NA
ATOM     16  C   UNL     1       7.125  -1.267   2.592  0.00  0.00    +0.000 A 
ENDROOT
BRANCH   3  17
ATOM     17  C   UNL     1       8.728  -5.271   2.064  0.00  0.00    +0.000 A 
ATOM     18  C   UNL     1       9.575  -5.567   3.127  0.00  0.00    +0.000 A 
ATOM     19  C   UNL     1      10.074  -6.863   3.230  0.00  0.00    +0.000 A 
ATOM     20  C   UNL     1       9.637  -7.835   2.337  0.00  0.00    +0.000 A 
ATOM     21  C   UNL     1       8.699  -7.471   1.383  0.00  0.00    +0.000 A 
ATOM     22  N   UNL     1       8.270  -6.202   1.192  0.00  0.00    +0.000 NA
ENDBRANCH   3  17
BRANCH   1  23
ATOM     23  C   UNL     1       5.117  -2.176   1.421  0.00  0.00    +0.000 C 
BRANCH  23  24
ATOM     24  C   UNL     1       4.529  -0.961   0.685  0.00  0.00    +0.000 C 
BRANCH  24  25
ATOM     25  C   UNL     1       3.014  -1.004   0.716  0.00  0.00    +0.000 C 
ATOM     26  O   UNL     1       2.346  -1.881   1.258  0.00  0.00    +0.000 OA
BRANCH  25  28
ATOM     27  C   UNL     1       1.042   0.061   0.042  0.00  0.00    +0.000 C 
ATOM     28  O   UNL     1       2.476   0.056   0.046  0.00  0.00    +0.000 OA
ENDBRANCH  25  28
ENDBRANCH  24  25
ENDBRANCH  23  24
ENDBRANCH   1  23
TORSDOF 5
