REMARK  Name = Remifentanil
REMARK  12 active torsions:
REMARK  status: ('A' for Active; 'I' for Inactive)
REMARK    1  A    between atoms: C_1  and  C_2
REMARK    2  A    between atoms: C_2  and  C_3
REMARK    3  A    between atoms: N_5  and  C_6
REMARK    4  A    between atoms: N_5  and  C_12
REMARK    5  A    between atoms: C_12  and  C_24
REMARK    6  A    between atoms: N_15  and  C_16
REMARK    7  A    between atoms: C_16  and  C_17
REMARK    8  A    between atoms: C_17  and  C_18
REMARK    9  A    between atoms: C_18  and  O_20
REMARK   10  A    between atoms: O_20  and  C_21
REMARK   11  A    between atoms: C_24  and  O_26
REMARK   12  A    between atoms: O_26  and  C_27
REMARK                            x       y       z     vdW  Elec       q    Type
REMARK                         _______ _______ _______ _____ _____    ______ ____
ROOT
ATOM      1  C   UNL     1       5.089   2.893   0.593  0.00  0.00    +0.000 C 
ATOM      2  C   UNL     1       4.716   4.246  -0.190  0.00  0.00    +0.000 C 
ATOM      3  C   UNL     1       4.642   4.259  -1.700  0.00  0.00    +0.000 C 
ATOM      4  N   UNL     1       5.828   3.619  -2.287  0.00  0.00    +0.000 NA
ATOM      5  C   UNL     1       5.988   2.339  -1.643  0.00  0.00    +0.000 C 
ATOM      6  C   UNL     1       6.396   2.615  -0.175  0.00  0.00    +0.000 C 
ENDROOT
BRANCH   1   9
ATOM      7  C   UNL     1       2.977   1.405   0.329  0.00  0.00    +0.000 C 
ATOM      8  O   UNL     1       2.258   2.403   0.301  0.00  0.00    +0.000 OA
ATOM      9  N   UNL     1       4.358   1.492   0.507  0.00  0.00    +0.000 N 
BRANCH   9  10
ATOM     10  C   UNL     1       5.217   0.259   0.443  0.00  0.00    +0.000 A 
ATOM     11  C   UNL     1       6.357   0.098   1.257  0.00  0.00    +0.000 A 
ATOM     12  C   UNL     1       7.445  -0.697   0.819  0.00  0.00    +0.000 A 
ATOM     13  C   UNL     1       7.336  -1.518  -0.301  0.00  0.00    +0.000 A 
ATOM     14  C   UNL     1       6.181  -1.466  -1.059  0.00  0.00    +0.000 A 
ATOM     15  C   UNL     1       5.169  -0.559  -0.715  0.00  0.00    +0.000 A 
ENDBRANCH   9  10
BRANCH   7  17
ATOM     16  C   UNL     1       0.906  -0.059   0.112  0.00  0.00    +0.000 C 
ATOM     17  C   UNL     1       2.408  -0.006   0.135  0.00  0.00    +0.000 C 
ENDBRANCH   7  17
ENDBRANCH   1   9
BRANCH   1  18
ATOM     18  C   UNL     1       4.830   3.470   2.067  0.00  0.00    +0.000 C 
ATOM     19  O   UNL     1       4.075   2.962   2.891  0.00  0.00    +0.000 OA
BRANCH  18  20
ATOM     20  O   UNL     1       5.341   4.741   2.246  0.00  0.00    +0.000 OA
ATOM     21  C   UNL     1       4.784   5.544   3.311  0.00  0.00    +0.000 C 
ENDBRANCH  18  20
ENDBRANCH   1  18
BRANCH   4  22
ATOM     22  C   UNL     1       5.646   3.479  -3.733  0.00  0.00    +0.000 C 
BRANCH  22  23
ATOM     23  C   UNL     1       6.756   2.669  -4.409  0.00  0.00    +0.000 C 
BRANCH  23  24
ATOM     24  C   UNL     1       6.508   2.673  -5.894  0.00  0.00    +0.000 C 
ATOM     25  O   UNL     1       5.577   3.214  -6.440  0.00  0.00    +0.000 OA
BRANCH  24  26
ATOM     26  O   UNL     1       7.475   1.942  -6.526  0.00  0.00    +0.000 OA
ATOM     27  C   UNL     1       7.287   1.900  -7.940  0.00  0.00    +0.000 C 
ENDBRANCH  24  26
ENDBRANCH  23  24
ENDBRANCH  22  23
ENDBRANCH   4  22
TORSDOF 9
