REMARK  Name = Remoxipride
REMARK  9 active torsions:
REMARK  status: ('A' for Active; 'I' for Inactive)
REMARK    1  A    between atoms: C_1  and  C_2
REMARK    2  A    between atoms: C_2  and  N_3
REMARK    3  A    between atoms: C_7  and  C_8
REMARK    4  A    between atoms: C_8  and  N_9
REMARK    5  A    between atoms: C_10  and  C_12
REMARK    6  A    between atoms: C_13  and  O_14
REMARK    7  A    between atoms: O_14  and  C_15
REMARK    8  A    between atoms: C_20  and  O_21
REMARK    9  A    between atoms: O_21  and  C_22
REMARK                            x       y       z     vdW  Elec       q    Type
REMARK                         _______ _______ _______ _____ _____    ______ ____
ROOT
ATOM      1  N   UNL     1       3.572   4.033   2.580  0.00  0.00    +0.000 N 
ATOM      2  C   UNL     1       4.523   4.837   3.193  0.00  0.00    +0.000 C 
ATOM      3  O   UNL     1       5.627   4.392   3.516  0.00  0.00    +0.000 OA
ATOM      4  H   UNL     1       2.647   4.410   2.420  0.00  0.00    +0.000 HD
ENDROOT
BRANCH   2   5
ATOM      5  C   UNL     1       4.173   6.285   3.464  0.00  0.00    +0.000 A 
ATOM      6  C   UNL     1       2.925   6.626   4.051  0.00  0.00    +0.000 A 
ATOM      7  C   UNL     1       2.656   7.968   4.338  0.00  0.00    +0.000 A 
ATOM      8  C   UNL     1       3.586   8.958   4.068  0.00  0.00    +0.000 A 
ATOM      9  C   UNL     1       4.823   8.654   3.503  0.00  0.00    +0.000 A 
ATOM     10 BR   UNL     1       5.866  10.242   3.270  0.00  0.00    +0.000 Br
ATOM     11  C   UNL     1       5.145   7.313   3.186  0.00  0.00    +0.000 A 
BRANCH   6  12
ATOM     12  O   UNL     1       2.018   5.634   4.344  0.00  0.00    +0.000 OA
ATOM     13  C   UNL     1       0.802   6.039   4.984  0.00  0.00    +0.000 C 
ENDBRANCH   6  12
BRANCH  11  14
ATOM     14  O   UNL     1       6.303   6.866   2.596  0.00  0.00    +0.000 OA
ATOM     15  C   UNL     1       7.352   7.773   2.304  0.00  0.00    +0.000 C 
ENDBRANCH  11  14
ENDBRANCH   2   5
BRANCH   1  16
ATOM     16  C   UNL     1       3.838   2.616   2.292  0.00  0.00    +0.000 C 
BRANCH  16  21
ATOM     17  N   UNL     1       2.920   0.457   1.328  0.00  0.00    +0.000 NA
ATOM     18  C   UNL     1       2.278  -0.368   2.366  0.00  0.00    +0.000 C 
ATOM     19  C   UNL     1       1.017   0.383   2.757  0.00  0.00    +0.000 C 
ATOM     20  C   UNL     1       1.457   1.831   2.682  0.00  0.00    +0.000 C 
ATOM     21  C   UNL     1       2.622   1.873   1.677  0.00  0.00    +0.000 C 
BRANCH  17  23
ATOM     22  C   UNL     1       0.951   0.046  -0.240  0.00  0.00    +0.000 C 
ATOM     23  C   UNL     1       2.463   0.097  -0.033  0.00  0.00    +0.000 C 
ENDBRANCH  17  23
ENDBRANCH  16  21
ENDBRANCH   1  16
TORSDOF 6
