REMARK  Name = Repaglinide
REMARK  14 active torsions:
REMARK  status: ('A' for Active; 'I' for Inactive)
REMARK    1  A    between atoms: C_1  and  C_2
REMARK    2  A    between atoms: C_2  and  O_3
REMARK    3  A    between atoms: O_3  and  C_4
REMARK    4  A    between atoms: C_5  and  C_31
REMARK    5  A    between atoms: C_8  and  C_9
REMARK    6  A    between atoms: C_9  and  C_10
REMARK    7  A    between atoms: N_12  and  C_13
REMARK    8  A    between atoms: C_13  and  C_14
REMARK    9  A    between atoms: C_13  and  C_18
REMARK   10  A    between atoms: C_14  and  C_15
REMARK   11  A    between atoms: C_15  and  C_16
REMARK   12  A    between atoms: C_15  and  C_17
REMARK   13  A    between atoms: C_23  and  N_24
REMARK   14  A    between atoms: C_31  and  O_32
REMARK                            x       y       z     vdW  Elec       q    Type
REMARK                         _______ _______ _______ _____ _____    ______ ____
ROOT
ATOM      1  C   UNL     1       6.812  -0.808   2.342  0.00  0.00    +0.000 C 
ATOM      2  O   UNL     1       5.951   0.072   2.337  0.00  0.00    +0.000 OA
ATOM      3  N   UNL     1       7.163  -1.465   3.523  0.00  0.00    +0.000 N 
ATOM      4  H   UNL     1       8.060  -1.920   3.616  0.00  0.00    +0.000 HD
ENDROOT
BRANCH   1   5
ATOM      5  C   UNL     1       7.388  -1.438   1.040  0.00  0.00    +0.000 C 
BRANCH   5  10
ATOM      6  C   UNL     1       4.257  -1.054  -1.251  0.00  0.00    +0.000 A 
ATOM      7  C   UNL     1       4.794  -1.283  -2.523  0.00  0.00    +0.000 A 
ATOM      8  C   UNL     1       6.145  -1.690  -2.605  0.00  0.00    +0.000 A 
ATOM      9  C   UNL     1       6.978  -1.729  -1.466  0.00  0.00    +0.000 A 
ATOM     10  C   UNL     1       6.482  -1.387  -0.207  0.00  0.00    +0.000 A 
ATOM     11  C   UNL     1       5.112  -1.086  -0.143  0.00  0.00    +0.000 A 
BRANCH   7  12
ATOM     12  C   UNL     1       3.961  -0.961  -3.730  0.00  0.00    +0.000 C 
ATOM     13  O   UNL     1       2.811  -0.524  -3.675  0.00  0.00    +0.000 OA
BRANCH  12  14
ATOM     14  O   UNL     1       4.565  -1.081  -4.930  0.00  0.00    +0.000 OA
ATOM     15  H   UNL     1       5.495  -1.349  -4.950  0.00  0.00    +0.000 HD
ENDBRANCH  12  14
ENDBRANCH   7  12
BRANCH   6  16
ATOM     16  O   UNL     1       2.899  -0.929  -1.080  0.00  0.00    +0.000 OA
BRANCH  16  18
ATOM     17  C   UNL     1       0.936   0.011  -0.069  0.00  0.00    +0.000 C 
ATOM     18  C   UNL     1       2.455   0.008  -0.090  0.00  0.00    +0.000 C 
ENDBRANCH  16  18
ENDBRANCH   6  16
ENDBRANCH   5  10
ENDBRANCH   1   5
BRANCH   3  19
ATOM     19  C   UNL     1       6.290  -1.395   4.697  0.00  0.00    +0.000 C 
BRANCH  19  20
ATOM     20  C   UNL     1       7.091  -1.471   5.984  0.00  0.00    +0.000 A 
ATOM     21  C   UNL     1       7.379  -2.741   6.540  0.00  0.00    +0.000 A 
ATOM     22  C   UNL     1       7.974  -2.868   7.786  0.00  0.00    +0.000 A 
ATOM     23  C   UNL     1       8.417  -1.728   8.435  0.00  0.00    +0.000 A 
ATOM     24  C   UNL     1       8.213  -0.467   7.858  0.00  0.00    +0.000 A 
ATOM     25  C   UNL     1       7.531  -0.304   6.638  0.00  0.00    +0.000 A 
BRANCH  25  26
ATOM     26  N   UNL     1       7.296   0.964   6.151  0.00  0.00    +0.000 N 
ATOM     27  C   UNL     1       8.382   1.852   5.756  0.00  0.00    +0.000 C 
ATOM     28  C   UNL     1       8.216   3.165   6.521  0.00  0.00    +0.000 C 
ATOM     29  C   UNL     1       6.815   3.761   6.328  0.00  0.00    +0.000 C 
ATOM     30  C   UNL     1       5.721   2.739   6.626  0.00  0.00    +0.000 C 
ATOM     31  C   UNL     1       5.954   1.457   5.851  0.00  0.00    +0.000 C 
ENDBRANCH  25  26
ENDBRANCH  19  20
BRANCH  19  32
ATOM     32  C   UNL     1       5.082  -2.395   4.771  0.00  0.00    +0.000 C 
BRANCH  32  33
ATOM     33  C   UNL     1       4.115  -2.348   3.587  0.00  0.00    +0.000 C 
ATOM     34  C   UNL     1       4.761  -2.977   2.373  0.00  0.00    +0.000 C 
ATOM     35  C   UNL     1       2.881  -3.214   3.762  0.00  0.00    +0.000 C 
ENDBRANCH  32  33
ENDBRANCH  19  32
ENDBRANCH   3  19
TORSDOF 11
