REMARK  Name = Rescinnamine
REMARK  17 active torsions:
REMARK  status: ('A' for Active; 'I' for Inactive)
REMARK    1  A    between atoms: C_4  and  O_5
REMARK    2  A    between atoms: O_5  and  C_6
REMARK    3  A    between atoms: C_6  and  C_8
REMARK    4  A    between atoms: C_9  and  C_10
REMARK    5  A    between atoms: C_12  and  O_13
REMARK    6  A    between atoms: O_13  and  C_14
REMARK    7  A    between atoms: C_15  and  O_16
REMARK    8  A    between atoms: O_16  and  C_17
REMARK    9  A    between atoms: C_18  and  O_19
REMARK   10  A    between atoms: O_19  and  C_20
REMARK   11  A    between atoms: C_22  and  O_23
REMARK   12  A    between atoms: O_23  and  C_24
REMARK   13  A    between atoms: C_25  and  C_26
REMARK   14  A    between atoms: C_26  and  O_28
REMARK   15  A    between atoms: O_28  and  C_29
REMARK   16  A    between atoms: C_45  and  O_46
REMARK   17  A    between atoms: O_46  and  C_47
REMARK                            x       y       z     vdW  Elec       q    Type
REMARK                         _______ _______ _______ _____ _____    ______ ____
ROOT
ATOM      1  C   UNL     1       2.059   0.022  -0.142  0.00  0.00    +0.000 C 
ATOM      2  C   UNL     1       2.798  -0.331  -1.362  0.00  0.00    +0.000 C 
ATOM      3  C   UNL     1       4.391  -0.076  -1.168  0.00  0.00    +0.000 C 
ATOM      4  C   UNL     1       4.939  -1.366  -1.580  0.00  0.00    +0.000 C 
ATOM      5  C   UNL     1       4.501  -1.921   0.266  0.00  0.00    +0.000 C 
ATOM      6  C   UNL     1       2.626  -1.183   0.750  0.00  0.00    +0.000 C 
ATOM      7  C   UNL     1       2.113  -0.163   2.264  0.00  0.00    +0.000 C 
ATOM      8  C   UNL     1       2.700   1.288   2.523  0.00  0.00    +0.000 C 
ATOM      9  N   UNL     1       2.381   2.180   1.390  0.00  0.00    +0.000 NA
ATOM     10  C   UNL     1       3.232   3.420   1.442  0.00  0.00    +0.000 C 
ATOM     11  C   UNL     1       2.452   4.196   2.495  0.00  0.00    +0.000 C 
ATOM     12  C   UNL     1       2.301   3.372   3.749  0.00  0.00    +0.000 A 
ATOM     13  C   UNL     1       2.362   1.999   3.739  0.00  0.00    +0.000 A 
ATOM     14  N   UNL     1       2.355   1.508   4.999  0.00  0.00    +0.000 N 
ATOM     15  C   UNL     1       1.996   2.537   5.819  0.00  0.00    +0.000 A 
ATOM     16  C   UNL     1       1.939   3.699   5.045  0.00  0.00    +0.000 A 
ATOM     17  C   UNL     1       1.537   4.899   5.605  0.00  0.00    +0.000 A 
ATOM     18  C   UNL     1       1.199   4.891   6.950  0.00  0.00    +0.000 A 
ATOM     19  C   UNL     1       1.279   3.725   7.725  0.00  0.00    +0.000 A 
ATOM     20  C   UNL     1       1.694   2.516   7.169  0.00  0.00    +0.000 A 
ATOM     21  C   UNL     1       2.309   1.585   0.076  0.00  0.00    +0.000 C 
ATOM     22  H   UNL     1       2.526   0.553   5.289  0.00  0.00    +0.000 HD
ENDROOT
BRANCH   4  23
ATOM     23  O   UNL     1       4.534  -1.265  -3.102  0.00  0.00    +0.000 OA
ATOM     24  C   UNL     1       5.575  -0.485  -4.003  0.00  0.00    +0.000 C 
ENDBRANCH   4  23
BRANCH   5  25
ATOM     25  C   UNL     1       5.926  -1.394   1.670  0.00  0.00    +0.000 C 
ATOM     26  O   UNL     1       6.741  -2.139   2.271  0.00  0.00    +0.000 OA
BRANCH  25  27
ATOM     27  O   UNL     1       5.499  -0.152   2.792  0.00  0.00    +0.000 OA
ATOM     28  C   UNL     1       5.438   0.276   4.335  0.00  0.00    +0.000 C 
ENDBRANCH  25  27
ENDBRANCH   5  25
BRANCH  19  29
ATOM     29  O   UNL     1       0.918   3.873   9.038  0.00  0.00    +0.000 OA
ATOM     30  C   UNL     1       0.993   2.695   9.834  0.00  0.00    +0.000 C 
ENDBRANCH  19  29
BRANCH   3  31
ATOM     31  O   UNL     1       5.173  -0.162   0.034  0.00  0.00    +0.000 OA
BRANCH  31  32
ATOM     32  C   UNL     1       4.363  -0.166   1.186  0.00  0.00    +0.000 C 
ATOM     33  O   UNL     1       4.386   1.088   1.217  0.00  0.00    +0.000 OA
BRANCH  32  34
ATOM     34  C   UNL     1       4.038  -1.735   2.352  0.00  0.00    +0.000 C 
ATOM     35  C   UNL     1       3.861  -1.889   3.701  0.00  0.00    +0.000 C 
BRANCH  35  36
ATOM     36  C   UNL     1       4.522  -2.706   4.743  0.00  0.00    +0.000 A 
ATOM     37  C   UNL     1       3.676  -3.131   5.747  0.00  0.00    +0.000 A 
ATOM     38  C   UNL     1       4.160  -3.971   6.740  0.00  0.00    +0.000 A 
ATOM     39  C   UNL     1       5.537  -4.295   6.798  0.00  0.00    +0.000 A 
ATOM     40  C   UNL     1       6.433  -3.682   5.924  0.00  0.00    +0.000 A 
ATOM     41  C   UNL     1       5.914  -2.833   4.963  0.00  0.00    +0.000 A 
BRANCH  38  42
ATOM     42  O   UNL     1       3.152  -4.462   7.534  0.00  0.00    +0.000 OA
ATOM     43  C   UNL     1       3.553  -5.430   8.489  0.00  0.00    +0.000 C 
ENDBRANCH  38  42
BRANCH  39  44
ATOM     44  O   UNL     1       5.900  -5.224   7.726  0.00  0.00    +0.000 OA
ATOM     45  C   UNL     1       7.248  -5.608   7.843  0.00  0.00    +0.000 C 
ENDBRANCH  39  44
BRANCH  40  46
ATOM     46  O   UNL     1       7.761  -3.987   6.013  0.00  0.00    +0.000 OA
ATOM     47  C   UNL     1       8.713  -3.429   5.126  0.00  0.00    +0.000 C 
ENDBRANCH  40  46
ENDBRANCH  35  36
ENDBRANCH  32  34
ENDBRANCH  31  32
ENDBRANCH   3  31
TORSDOF 11
