REMARK  Name = Reserpine
REMARK  16 active torsions:
REMARK  status: ('A' for Active; 'I' for Inactive)
REMARK    1  A    between atoms: C_4  and  O_5
REMARK    2  A    between atoms: O_5  and  C_6
REMARK    3  A    between atoms: C_6  and  C_8
REMARK    4  A    between atoms: C_10  and  O_11
REMARK    5  A    between atoms: O_11  and  C_12
REMARK    6  A    between atoms: C_13  and  O_14
REMARK    7  A    between atoms: O_14  and  C_15
REMARK    8  A    between atoms: C_16  and  O_17
REMARK    9  A    between atoms: O_17  and  C_18
REMARK   10  A    between atoms: C_20  and  O_21
REMARK   11  A    between atoms: O_21  and  C_22
REMARK   12  A    between atoms: C_23  and  C_24
REMARK   13  A    between atoms: C_24  and  O_26
REMARK   14  A    between atoms: O_26  and  C_27
REMARK   15  A    between atoms: C_43  and  O_44
REMARK   16  A    between atoms: O_44  and  C_45
REMARK                            x       y       z     vdW  Elec       q    Type
REMARK                         _______ _______ _______ _____ _____    ______ ____
ROOT
ATOM      1  C   UNL     1       1.784   0.109  -0.101  0.00  0.00    +0.000 C 
ATOM      2  C   UNL     1       2.556  -0.273  -1.303  0.00  0.00    +0.000 C 
ATOM      3  C   UNL     1       4.295  -0.020  -1.128  0.00  0.00    +0.000 C 
ATOM      4  C   UNL     1       4.209  -1.423  -1.354  0.00  0.00    +0.000 C 
ATOM      5  C   UNL     1       3.522  -1.396   0.620  0.00  0.00    +0.000 C 
ATOM      6  C   UNL     1       2.120  -0.899   0.935  0.00  0.00    +0.000 C 
ATOM      7  C   UNL     1       1.862  -0.135   2.310  0.00  0.00    +0.000 C 
ATOM      8  C   UNL     1       2.534   1.262   2.422  0.00  0.00    +0.000 C 
ATOM      9  N   UNL     1       2.284   2.134   1.315  0.00  0.00    +0.000 NA
ATOM     10  C   UNL     1       3.081   3.376   1.398  0.00  0.00    +0.000 C 
ATOM     11  C   UNL     1       2.288   4.148   2.457  0.00  0.00    +0.000 C 
ATOM     12  C   UNL     1       2.134   3.326   3.705  0.00  0.00    +0.000 A 
ATOM     13  C   UNL     1       2.224   1.960   3.670  0.00  0.00    +0.000 A 
ATOM     14  N   UNL     1       2.177   1.454   4.933  0.00  0.00    +0.000 N 
ATOM     15  C   UNL     1       1.827   2.478   5.774  0.00  0.00    +0.000 A 
ATOM     16  C   UNL     1       1.773   3.646   5.009  0.00  0.00    +0.000 A 
ATOM     17  C   UNL     1       1.376   4.842   5.587  0.00  0.00    +0.000 A 
ATOM     18  C   UNL     1       1.039   4.830   6.934  0.00  0.00    +0.000 A 
ATOM     19  C   UNL     1       1.120   3.660   7.701  0.00  0.00    +0.000 A 
ATOM     20  C   UNL     1       1.534   2.453   7.133  0.00  0.00    +0.000 A 
ATOM     21  C   UNL     1       2.182   1.564   0.038  0.00  0.00    +0.000 C 
ATOM     22  H   UNL     1       2.350   0.495   5.219  0.00  0.00    +0.000 HD
ENDROOT
BRANCH   4  23
ATOM     23  O   UNL     1       3.770  -1.652  -2.888  0.00  0.00    +0.000 OA
ATOM     24  C   UNL     1       3.258  -0.718  -3.926  0.00  0.00    +0.000 C 
ENDBRANCH   4  23
BRANCH   5  25
ATOM     25  C   UNL     1       4.081  -0.865   2.448  0.00  0.00    +0.000 C 
ATOM     26  O   UNL     1       3.923  -1.505   3.561  0.00  0.00    +0.000 OA
BRANCH  25  27
ATOM     27  O   UNL     1       4.832   0.203   2.989  0.00  0.00    +0.000 OA
ATOM     28  C   UNL     1       5.039   0.340   4.433  0.00  0.00    +0.000 C 
ENDBRANCH  25  27
ENDBRANCH   5  25
BRANCH  19  29
ATOM     29  O   UNL     1       0.758   3.807   9.015  0.00  0.00    +0.000 OA
ATOM     30  C   UNL     1       0.833   2.631   9.812  0.00  0.00    +0.000 C 
ENDBRANCH  19  29
BRANCH   3  31
ATOM     31  O   UNL     1       5.622  -0.680  -0.475  0.00  0.00    +0.000 OA
BRANCH  31  32
ATOM     32  C   UNL     1       5.537  -0.825   0.842  0.00  0.00    +0.000 C 
ATOM     33  O   UNL     1       5.203   0.340   1.060  0.00  0.00    +0.000 OA
BRANCH  32  34
ATOM     34  C   UNL     1       5.167  -2.570   1.612  0.00  0.00    +0.000 A 
ATOM     35  C   UNL     1       3.930  -3.337   2.538  0.00  0.00    +0.000 A 
ATOM     36  C   UNL     1       4.144  -3.926   3.853  0.00  0.00    +0.000 A 
ATOM     37  C   UNL     1       5.496  -4.020   4.156  0.00  0.00    +0.000 A 
ATOM     38  C   UNL     1       6.525  -3.452   3.297  0.00  0.00    +0.000 A 
ATOM     39  C   UNL     1       6.355  -2.749   2.124  0.00  0.00    +0.000 A 
BRANCH  36  40
ATOM     40  O   UNL     1       3.113  -4.028   4.825  0.00  0.00    +0.000 OA
ATOM     41  C   UNL     1       3.397  -4.883   5.971  0.00  0.00    +0.000 C 
ENDBRANCH  36  40
BRANCH  37  42
ATOM     42  O   UNL     1       5.801  -4.626   5.343  0.00  0.00    +0.000 OA
ATOM     43  C   UNL     1       7.120  -5.095   5.446  0.00  0.00    +0.000 C 
ENDBRANCH  37  42
BRANCH  38  44
ATOM     44  O   UNL     1       7.846  -3.491   3.679  0.00  0.00    +0.000 OA
ATOM     45  C   UNL     1       8.759  -2.934   2.737  0.00  0.00    +0.000 C 
ENDBRANCH  38  44
ENDBRANCH  32  34
ENDBRANCH  31  32
ENDBRANCH   3  31
TORSDOF 10
