REMARK  Name = Resorcinol monoacetate
REMARK  4 active torsions:
REMARK  status: ('A' for Active; 'I' for Inactive)
REMARK    1  A    between atoms: C_1  and  C_2
REMARK    2  A    between atoms: C_2  and  O_4
REMARK    3  A    between atoms: O_4  and  C_5
REMARK    4  A    between atoms: C_7  and  O_8
REMARK                            x       y       z     vdW  Elec       q    Type
REMARK                         _______ _______ _______ _____ _____    ______ ____
ROOT
ATOM      1  C   UNL     1       2.821  -1.752  -1.729  0.00  0.00    +0.000 A 
ATOM      2  C   UNL     1       3.557  -2.898  -2.047  0.00  0.00    +0.000 A 
ATOM      3  C   UNL     1       3.280  -3.556  -3.245  0.00  0.00    +0.000 A 
ATOM      4  C   UNL     1       2.278  -3.100  -4.097  0.00  0.00    +0.000 A 
ATOM      5  C   UNL     1       1.577  -1.942  -3.784  0.00  0.00    +0.000 A 
ATOM      6  C   UNL     1       1.887  -1.242  -2.625  0.00  0.00    +0.000 A 
ENDROOT
BRANCH   3   7
ATOM      7  O   UNL     1       3.970  -4.662  -3.646  0.00  0.00    +0.000 OA
ATOM      8  H   UNL     1       4.655  -4.870  -2.990  0.00  0.00    +0.000 HD
ENDBRANCH   3   7
BRANCH   1   9
ATOM      9  O   UNL     1       3.152  -1.086  -0.522  0.00  0.00    +0.000 OA
BRANCH   9  11
ATOM     10  C   UNL     1       0.977  -0.097   0.133  0.00  0.00    +0.000 C 
ATOM     11  C   UNL     1       2.479  -0.011   0.060  0.00  0.00    +0.000 C 
ATOM     12  O   UNL     1       3.105   0.909   0.587  0.00  0.00    +0.000 OA
ENDBRANCH   9  11
ENDBRANCH   1   9
TORSDOF 3
