REMARK  Name = Resorcinol
REMARK  2 active torsions:
REMARK  status: ('A' for Active; 'I' for Inactive)
REMARK    1  A    between atoms: O_1  and  C_2
REMARK    2  A    between atoms: C_4  and  O_5
REMARK                            x       y       z     vdW  Elec       q    Type
REMARK                         _______ _______ _______ _____ _____    ______ ____
ROOT
ATOM      1  C   UNL     1       1.198  -0.279  -0.011  0.00  0.00    +0.000 A 
ATOM      2  C   UNL     1       0.005  -0.998  -0.006  0.00  0.00    +0.000 A 
ATOM      3  C   UNL     1      -1.198  -0.295   0.005  0.00  0.00    +0.000 A 
ATOM      4  C   UNL     1      -1.216   1.096   0.013  0.00  0.00    +0.000 A 
ATOM      5  C   UNL     1      -0.014   1.804   0.002  0.00  0.00    +0.000 A 
ATOM      6  C   UNL     1       1.197   1.113  -0.012  0.00  0.00    +0.000 A 
ENDROOT
BRANCH   1   7
ATOM      7  O   UNL     1       2.410  -0.906  -0.013  0.00  0.00    +0.000 OA
ATOM      8  H   UNL     1       2.271  -1.865   0.017  0.00  0.00    +0.000 HD
ENDBRANCH   1   7
BRANCH   3   9
ATOM      9  O   UNL     1      -2.402  -0.938   0.008  0.00  0.00    +0.000 OA
ATOM     10  H   UNL     1      -2.250  -1.896  -0.015  0.00  0.00    +0.000 HD
ENDBRANCH   3   9
TORSDOF 2
