REMARK  Name = Retapamulin
REMARK  12 active torsions:
REMARK  status: ('A' for Active; 'I' for Inactive)
REMARK    1  A    between atoms: C_10  and  C_11
REMARK    2  A    between atoms: C_12  and  C_13
REMARK    3  A    between atoms: C_14  and  O_24
REMARK    4  A    between atoms: C_16  and  C_17
REMARK    5  A    between atoms: C_16  and  C_18
REMARK    6  A    between atoms: C_20  and  O_21
REMARK    7  A    between atoms: C_22  and  C_23
REMARK    8  A    between atoms: O_24  and  C_25
REMARK    9  A    between atoms: C_25  and  C_27
REMARK   10  A    between atoms: C_27  and  S_28
REMARK   11  A    between atoms: S_28  and  C_29
REMARK   12  A    between atoms: N_36  and  C_37
REMARK                            x       y       z     vdW  Elec       q    Type
REMARK                         _______ _______ _______ _____ _____    ______ ____
ROOT
ATOM      1  C   UNL     1      -6.359  -0.702 -10.845  0.00  0.00    +0.000 C 
ATOM      2  C   UNL     1      -6.713   1.303 -11.203  0.00  0.00    +0.000 C 
ATOM      3  O   UNL     1      -5.897   2.193 -11.514  0.00  0.00    +0.000 OA
ATOM      4  C   UNL     1      -8.290   1.345 -12.204  0.00  0.00    +0.000 C 
ATOM      5  C   UNL     1      -9.025   0.121 -11.590  0.00  0.00    +0.000 C 
ATOM      6  C   UNL     1      -7.796  -1.393 -10.853  0.00  0.00    +0.000 C 
ATOM      7  C   UNL     1      -7.459  -1.327  -9.383  0.00  0.00    +0.000 C 
ATOM      8  C   UNL     1      -6.665  -1.949  -8.411  0.00  0.00    +0.000 C 
ATOM      9  C   UNL     1      -5.456  -2.122  -9.215  0.00  0.00    +0.000 C 
ATOM     10  C   UNL     1      -5.658  -3.434 -10.010  0.00  0.00    +0.000 C 
ATOM     11  C   UNL     1      -5.159  -0.892 -10.057  0.00  0.00    +0.000 C 
ATOM     12  C   UNL     1      -5.218   0.467  -9.424  0.00  0.00    +0.000 C 
ATOM     13  C   UNL     1      -3.935  -1.113 -10.955  0.00  0.00    +0.000 C 
ATOM     14  C   UNL     1      -3.858  -0.120 -12.078  0.00  0.00    +0.000 C 
ATOM     15  C   UNL     1      -5.047  -0.594 -13.014  0.00  0.00    +0.000 C 
ATOM     16  C   UNL     1      -4.888  -1.650 -13.983  0.00  0.00    +0.000 C 
ATOM     17  C   UNL     1      -6.275   0.096 -12.507  0.00  0.00    +0.000 C 
ATOM     18  C   UNL     1      -7.864  -0.123 -10.966  0.00  0.00    +0.000 C 
ATOM     19  C   UNL     1      -9.578  -1.255 -10.267  0.00  0.00    +0.000 C 
ENDROOT
BRANCH  15  20
ATOM     20  C   UNL     1      -6.693  -0.584 -13.277  0.00  0.00    +0.000 C 
ATOM     21  C   UNL     1      -7.438  -1.708 -13.031  0.00  0.00    +0.000 C 
ENDBRANCH  15  20
BRANCH  17  22
ATOM     22  O   UNL     1      -5.945   0.755 -14.385  0.00  0.00    +0.000 OA
ATOM     23  H   UNL     1      -6.711   0.412 -14.935  0.00  0.00    +0.000 HD
ENDBRANCH  17  22
BRANCH  13  24
ATOM     24  O   UNL     1      -2.884  -1.081 -10.033  0.00  0.00    +0.000 OA
BRANCH  24  25
ATOM     25  C   UNL     1      -1.679  -1.290 -10.581  0.00  0.00    +0.000 C 
ATOM     26  O   UNL     1      -1.493  -1.511 -11.770  0.00  0.00    +0.000 OA
BRANCH  25  27
ATOM     27  C   UNL     1      -0.627  -1.224  -9.500  0.00  0.00    +0.000 C 
BRANCH  27  28
ATOM     28  S   UNL     1       0.916  -1.414 -10.358  0.00  0.00    +0.000 S 
BRANCH  28  29
ATOM     29  C   UNL     1       2.220  -1.397  -9.056  0.00  0.00    +0.000 C 
ATOM     30  C   UNL     1       2.610  -2.847  -8.702  0.00  0.00    +0.000 C 
ATOM     31  C   UNL     1       3.051  -3.495  -9.976  0.00  0.00    +0.000 C 
ATOM     32  C   UNL     1       4.271  -4.066 -10.527  0.00  0.00    +0.000 C 
ATOM     33  C   UNL     1       4.922  -2.286 -11.381  0.00  0.00    +0.000 C 
ATOM     34  C   UNL     1       3.773  -1.536 -10.898  0.00  0.00    +0.000 C 
ATOM     35  C   UNL     1       3.438  -0.702  -9.709  0.00  0.00    +0.000 C 
ATOM     36  N   UNL     1       4.187  -2.674 -10.178  0.00  0.00    +0.000 NA
ATOM     37  C   UNL     1       5.588  -2.746  -9.314  0.00  0.00    +0.000 C 
ENDBRANCH  28  29
ENDBRANCH  27  28
ENDBRANCH  25  27
ENDBRANCH  24  25
ENDBRANCH  13  24
TORSDOF 7
