REMARK  Name = Revefenacin
REMARK  12 active torsions:
REMARK  status: ('A' for Active; 'I' for Inactive)
REMARK    1  A    between atoms: C_1  and  N_2
REMARK    2  A    between atoms: N_2  and  C_3
REMARK    3  A    between atoms: C_3  and  C_4
REMARK    4  A    between atoms: C_4  and  N_5
REMARK    5  A    between atoms: C_8  and  O_11
REMARK    6  A    between atoms: O_11  and  C_12
REMARK    7  A    between atoms: N_14  and  C_15
REMARK    8  A    between atoms: C_20  and  C_21
REMARK    9  A    between atoms: C_27  and  C_29
REMARK   10  A    between atoms: C_32  and  C_33
REMARK   11  A    between atoms: C_33  and  N_34
REMARK   12  A    between atoms: C_37  and  C_40
REMARK                            x       y       z     vdW  Elec       q    Type
REMARK                         _______ _______ _______ _____ _____    ______ ____
ROOT
ATOM      1  C   UNL     1       2.137  -0.761  -2.436  0.00  0.00    +0.000 C 
ENDROOT
BRANCH   1   2
ATOM      2  N   UNL     1       2.907  -1.055  -3.647  0.00  0.00    +0.000 NA
ATOM      3  C   UNL     1       2.479  -2.363  -4.122  0.00  0.00    +0.000 C 
ATOM      4  C   UNL     1       3.205  -2.776  -5.383  0.00  0.00    +0.000 C 
ATOM      5  C   UNL     1       2.934  -1.768  -6.500  0.00  0.00    +0.000 C 
ATOM      6  C   UNL     1       3.343  -0.385  -5.986  0.00  0.00    +0.000 C 
ATOM      7  C   UNL     1       2.635  -0.043  -4.679  0.00  0.00    +0.000 C 
BRANCH   5   8
ATOM      8  O   UNL     1       1.527  -1.767  -6.920  0.00  0.00    +0.000 OA
BRANCH   8   9
ATOM      9  C   UNL     1       1.147  -2.879  -7.626  0.00  0.00    +0.000 C 
ATOM     10  O   UNL     1       1.954  -3.761  -7.944  0.00  0.00    +0.000 OA
ATOM     11  N   UNL     1      -0.196  -2.904  -7.965  0.00  0.00    +0.000 N 
ATOM     12  H   UNL     1      -0.723  -2.042  -7.931  0.00  0.00    +0.000 HD
BRANCH  11  13
ATOM     13  C   UNL     1      -0.860  -4.107  -8.368  0.00  0.00    +0.000 A 
ATOM     14  C   UNL     1      -1.748  -4.109  -9.451  0.00  0.00    +0.000 A 
ATOM     15  C   UNL     1      -2.403  -5.295  -9.838  0.00  0.00    +0.000 A 
ATOM     16  C   UNL     1      -2.169  -6.492  -9.166  0.00  0.00    +0.000 A 
ATOM     17  C   UNL     1      -1.323  -6.492  -8.070  0.00  0.00    +0.000 A 
ATOM     18  C   UNL     1      -0.671  -5.314  -7.656  0.00  0.00    +0.000 A 
BRANCH  18  19
ATOM     19  C   UNL     1       0.115  -5.392  -6.429  0.00  0.00    +0.000 A 
ATOM     20  C   UNL     1       1.249  -6.216  -6.380  0.00  0.00    +0.000 A 
ATOM     21  C   UNL     1       2.011  -6.297  -5.223  0.00  0.00    +0.000 A 
ATOM     22  C   UNL     1       1.666  -5.519  -4.122  0.00  0.00    +0.000 A 
ATOM     23  C   UNL     1       0.544  -4.687  -4.164  0.00  0.00    +0.000 A 
ATOM     24  C   UNL     1      -0.220  -4.609  -5.318  0.00  0.00    +0.000 A 
ENDBRANCH  18  19
ENDBRANCH  11  13
ENDBRANCH   8   9
ENDBRANCH   5   8
ENDBRANCH   1   2
BRANCH   1  25
ATOM     25  C   UNL     1       3.065  -0.455  -1.275  0.00  0.00    +0.000 C 
BRANCH  25  27
ATOM     26  C   UNL     1       0.939  -0.026   0.047  0.00  0.00    +0.000 C 
ATOM     27  N   UNL     1       2.394  -0.054  -0.020  0.00  0.00    +0.000 N 
ATOM     28  C   UNL     1       3.051   0.209   1.195  0.00  0.00    +0.000 C 
ATOM     29  O   UNL     1       2.455   0.479   2.236  0.00  0.00    +0.000 OA
BRANCH  28  30
ATOM     30  C   UNL     1       4.522   0.240   1.253  0.00  0.00    +0.000 A 
ATOM     31  C   UNL     1       5.266  -0.266   2.334  0.00  0.00    +0.000 A 
ATOM     32  C   UNL     1       6.666  -0.103   2.399  0.00  0.00    +0.000 A 
ATOM     33  C   UNL     1       7.336   0.470   1.330  0.00  0.00    +0.000 A 
ATOM     34  C   UNL     1       6.533   0.982   0.311  0.00  0.00    +0.000 A 
ATOM     35  C   UNL     1       5.172   0.936   0.274  0.00  0.00    +0.000 A 
BRANCH  33  36
ATOM     36  C   UNL     1       8.856   0.513   1.236  0.00  0.00    +0.000 C 
BRANCH  36  37
ATOM     37  N   UNL     1       9.392   1.087  -0.024  0.00  0.00    +0.000 NA
ATOM     38  C   UNL     1       8.998   0.266  -1.189  0.00  0.00    +0.000 C 
ATOM     39  C   UNL     1       9.280   0.927  -2.529  0.00  0.00    +0.000 C 
ATOM     40  C   UNL     1       8.780   2.384  -2.588  0.00  0.00    +0.000 C 
ATOM     41  C   UNL     1       9.395   3.170  -1.428  0.00  0.00    +0.000 C 
ATOM     42  C   UNL     1       9.117   2.531  -0.075  0.00  0.00    +0.000 C 
BRANCH  40  43
ATOM     43  C   UNL     1       7.246   2.475  -2.713  0.00  0.00    +0.000 C 
ATOM     44  N   UNL     1       6.567   3.348  -1.907  0.00  0.00    +0.000 N 
ATOM     45  O   UNL     1       6.605   1.802  -3.517  0.00  0.00    +0.000 OA
ATOM     46  H   UNL     1       6.959   3.762  -1.075  0.00  0.00    +0.000 HD
ATOM     47  H   UNL     1       5.558   3.246  -1.890  0.00  0.00    +0.000 HD
ENDBRANCH  40  43
ENDBRANCH  36  37
ENDBRANCH  33  36
ENDBRANCH  28  30
ENDBRANCH  25  27
ENDBRANCH   1  25
TORSDOF 11
