REMARK  Name = Ribavirin
REMARK  6 active torsions:
REMARK  status: ('A' for Active; 'I' for Inactive)
REMARK    1  A    between atoms: C_2  and  C_4
REMARK    2  A    between atoms: N_6  and  C1*_9
REMARK    3  A    between atoms: C4*_11  and  C5*_12
REMARK    4  A    between atoms: C5*_12  and  O5*_13
REMARK    5  A    between atoms: C3*_14  and  O3*_15
REMARK    6  A    between atoms: C2*_16  and  O2*_17
REMARK                            x       y       z     vdW  Elec       q    Type
REMARK                         _______ _______ _______ _____ _____    ______ ____
ROOT
ATOM      1  C1* UNL     1       3.597   3.940  -2.585  0.00  0.00    +0.000 C 
ATOM      2  O4* UNL     1       3.224   3.926  -3.979  0.00  0.00    +0.000 OA
ATOM      3  C4* UNL     1       4.059   4.857  -4.696  0.00  0.00    +0.000 C 
ATOM      4  C3* UNL     1       4.909   5.605  -3.664  0.00  0.00    +0.000 C 
ATOM      5  C2* UNL     1       4.945   4.652  -2.477  0.00  0.00    +0.000 C 
ENDROOT
BRANCH   1   8
ATOM      6  C   UNL     1       3.139   0.911  -0.892  0.00  0.00    +0.000 A 
ATOM      7  N   UNL     1       2.723   2.174  -1.138  0.00  0.00    +0.000 NA
ATOM      8  N   UNL     1       3.607   2.579  -2.077  0.00  0.00    +0.000 N 
ATOM      9  C   UNL     1       4.424   1.559  -2.449  0.00  0.00    +0.000 A 
ATOM     10  N   UNL     1       4.187   0.510  -1.701  0.00  0.00    +0.000 NA
BRANCH   6  12
ATOM     11  N   UNL     1       1.113   0.081   0.101  0.00  0.00    +0.000 N 
ATOM     12  C   UNL     1       2.484   0.024   0.087  0.00  0.00    +0.000 C 
ATOM     13  O   UNL     1       3.081  -0.749   0.838  0.00  0.00    +0.000 OA
ATOM     14  H   UNL     1       0.615  -0.535   0.726  0.00  0.00    +0.000 HD
ATOM     15  H   UNL     1       0.612   0.665  -0.554  0.00  0.00    +0.000 HD
ENDBRANCH   6  12
ENDBRANCH   1   8
BRANCH   4  16
ATOM     16  O3* UNL     1       4.290   6.843  -3.283  0.00  0.00    +0.000 OA
ATOM     17  H3* UNL     1       3.371   6.689  -3.012  0.00  0.00    +0.000 HD
ENDBRANCH   4  16
BRANCH   5  18
ATOM     18  O2* UNL     1       5.123   5.320  -1.231  0.00  0.00    +0.000 OA
ATOM     19  H2* UNL     1       4.518   6.084  -1.198  0.00  0.00    +0.000 HD
ENDBRANCH   5  18
BRANCH   3  20
ATOM     20  C5* UNL     1       4.900   4.088  -5.718  0.00  0.00    +0.000 C 
BRANCH  20  21
ATOM     21  O5* UNL     1       5.711   4.970  -6.481  0.00  0.00    +0.000 OA
ATOM     22  H5* UNL     1       5.126   5.585  -6.961  0.00  0.00    +0.000 HD
ENDBRANCH  20  21
ENDBRANCH   3  20
TORSDOF 6
