REMARK  Name = Riboflavin
REMARK  11 active torsions:
REMARK  status: ('A' for Active; 'I' for Inactive)
REMARK    1  A    between atoms: C_1  and  C_2
REMARK    2  A    between atoms: C_3  and  C_4
REMARK    3  A    between atoms: N_7  and  C_8
REMARK    4  A    between atoms: C_8  and  C_9
REMARK    5  A    between atoms: C_9  and  O_10
REMARK    6  A    between atoms: C_9  and  C_11
REMARK    7  A    between atoms: C_11  and  O_12
REMARK    8  A    between atoms: C_11  and  C_13
REMARK    9  A    between atoms: C_13  and  O_14
REMARK   10  A    between atoms: C_13  and  C_15
REMARK   11  A    between atoms: C_15  and  O_16
REMARK                            x       y       z     vdW  Elec       q    Type
REMARK                         _______ _______ _______ _____ _____    ______ ____
ROOT
ATOM      1  C   UNL     1       3.727  -1.106   0.081  0.00  0.00    +0.000 C 
ATOM      2  C   UNL     1       3.357   0.189   0.711  0.00  0.00    +0.000 A 
ATOM      3  C   UNL     1       3.794   1.358   0.155  0.00  0.00    +0.000 A 
ATOM      4  C   UNL     1       4.674   1.573  -1.054  0.00  0.00    +0.000 C 
ATOM      5  C   UNL     1       3.420   2.511   0.818  0.00  0.00    +0.000 A 
ATOM      6  C   UNL     1       2.653   2.673   1.980  0.00  0.00    +0.000 A 
ATOM      7  N   UNL     1       2.355   3.901   2.610  0.00  0.00    +0.000 N 
ATOM      8  C   UNL     1       1.574   3.874   3.769  0.00  0.00    +0.000 A 
ATOM      9  N   UNL     1       1.229   4.952   4.406  0.00  0.00    +0.000 NA
ATOM     10  C   UNL     1       0.450   4.946   5.531  0.00  0.00    +0.000 A 
ATOM     11  O   UNL     1       0.132   5.971   6.107  0.00  0.00    +0.000 OA
ATOM     12  N   UNL     1       0.004   3.752   6.029  0.00  0.00    +0.000 N 
ATOM     13  C   UNL     1       0.255   2.517   5.518  0.00  0.00    +0.000 A 
ATOM     14  O   UNL     1      -0.177   1.483   6.008  0.00  0.00    +0.000 OA
ATOM     15  C   UNL     1       1.110   2.530   4.281  0.00  0.00    +0.000 A 
ATOM     16  N   UNL     1       1.416   1.412   3.688  0.00  0.00    +0.000 NA
ATOM     17  C   UNL     1       2.205   1.466   2.521  0.00  0.00    +0.000 A 
ATOM     18  C   UNL     1       2.561   0.249   1.885  0.00  0.00    +0.000 A 
ATOM     19  H   UNL     1      -0.570   3.810   6.857  0.00  0.00    +0.000 HD
ENDROOT
BRANCH   7  20
ATOM     20  C   UNL     1       2.779   5.256   2.152  0.00  0.00    +0.000 C 
BRANCH  20  21
ATOM     21  C   UNL     1       3.628   5.322   0.895  0.00  0.00    +0.000 C 
BRANCH  21  22
ATOM     22  O   UNL     1       3.479   6.509   0.111  0.00  0.00    +0.000 OA
ATOM     23  H   UNL     1       3.859   7.251   0.606  0.00  0.00    +0.000 HD
ENDBRANCH  21  22
BRANCH  21  24
ATOM     24  C   UNL     1       5.142   5.014   1.269  0.00  0.00    +0.000 C 
BRANCH  24  25
ATOM     25  O   UNL     1       5.432   3.865   2.088  0.00  0.00    +0.000 OA
ATOM     26  H   UNL     1       5.595   3.082   1.522  0.00  0.00    +0.000 HD
ENDBRANCH  24  25
BRANCH  24  27
ATOM     27  C   UNL     1       6.050   5.025   0.025  0.00  0.00    +0.000 C 
BRANCH  27  28
ATOM     28  O   UNL     1       6.993   3.947   0.039  0.00  0.00    +0.000 OA
ATOM     29  H   UNL     1       7.473   3.982   0.887  0.00  0.00    +0.000 HD
ENDBRANCH  27  28
BRANCH  27  30
ATOM     30  C   UNL     1       6.783   6.364  -0.018  0.00  0.00    +0.000 C 
BRANCH  30  31
ATOM     31  O   UNL     1       5.870   7.456  -0.018  0.00  0.00    +0.000 OA
ATOM     32  H   UNL     1       5.302   7.343  -0.807  0.00  0.00    +0.000 HD
ENDBRANCH  30  31
ENDBRANCH  27  30
ENDBRANCH  24  27
ENDBRANCH  21  24
ENDBRANCH  20  21
ENDBRANCH   7  20
TORSDOF 9
