REMARK  Name = Ribociclib
REMARK  6 active torsions:
REMARK  status: ('A' for Active; 'I' for Inactive)
REMARK    1  A    between atoms: C_1  and  N_2
REMARK    2  A    between atoms: N_2  and  C_3
REMARK    3  A    between atoms: C_4  and  C_6
REMARK    4  A    between atoms: N_12  and  C_13
REMARK    5  A    between atoms: C_16  and  N_19
REMARK    6  A    between atoms: N_27  and  C_28
REMARK                            x       y       z     vdW  Elec       q    Type
REMARK                         _______ _______ _______ _____ _____    ______ ____
ROOT
ATOM      1  C   UNL     1       4.794  -1.015   0.648  0.00  0.00    +0.000 A 
ATOM      2  C   UNL     1       5.571  -2.154   0.452  0.00  0.00    +0.000 A 
ATOM      3  C   UNL     1       6.941  -1.811   0.537  0.00  0.00    +0.000 A 
ATOM      4  C   UNL     1       8.137  -2.492   0.383  0.00  0.00    +0.000 A 
ATOM      5  N   UNL     1       9.305  -1.841   0.513  0.00  0.00    +0.000 NA
ATOM      6  C   UNL     1       9.322  -0.524   0.779  0.00  0.00    +0.000 A 
ATOM      7  N   UNL     1      10.587   0.070   0.929  0.00  0.00    +0.000 N 
ATOM      8  N   UNL     1       8.199   0.227   0.986  0.00  0.00    +0.000 NA
ATOM      9  C   UNL     1       7.031  -0.466   0.849  0.00  0.00    +0.000 A 
ATOM     10  N   UNL     1       5.716  -0.002   0.973  0.00  0.00    +0.000 N 
ATOM     11  H   UNL     1      10.565   1.030   1.220  0.00  0.00    +0.000 HD
ENDROOT
BRANCH   7  12
ATOM     12  C   UNL     1      11.853  -0.534   0.767  0.00  0.00    +0.000 A 
ATOM     13  C   UNL     1      12.748  -0.541   1.838  0.00  0.00    +0.000 A 
ATOM     14  C   UNL     1      13.972  -1.234   1.741  0.00  0.00    +0.000 A 
ATOM     15  C   UNL     1      14.347  -1.887   0.570  0.00  0.00    +0.000 A 
ATOM     16  C   UNL     1      13.417  -1.775  -0.462  0.00  0.00    +0.000 A 
ATOM     17  N   UNL     1      12.203  -1.137  -0.392  0.00  0.00    +0.000 NA
BRANCH  15  18
ATOM     18  N   UNL     1      15.510  -2.617   0.496  0.00  0.00    +0.000 N 
ATOM     19  C   UNL     1      15.788  -3.705   1.443  0.00  0.00    +0.000 C 
ATOM     20  C   UNL     1      16.114  -4.997   0.650  0.00  0.00    +0.000 C 
ATOM     21  N   UNL     1      17.241  -4.823  -0.292  0.00  0.00    +0.000 NA
ATOM     22  C   UNL     1      16.935  -3.701  -1.209  0.00  0.00    +0.000 C 
ATOM     23  C   UNL     1      16.589  -2.383  -0.472  0.00  0.00    +0.000 C 
ATOM     24  H   UNL     1      17.360  -5.678  -0.835  0.00  0.00    +0.000 HD
ENDBRANCH  15  18
ENDBRANCH   7  12
BRANCH   1  28
ATOM     25  C   UNL     1       1.121  -0.056   0.031  0.00  0.00    +0.000 C 
ATOM     26  N   UNL     1       2.574  -0.023  -0.035  0.00  0.00    +0.000 N 
ATOM     27  C   UNL     1       3.118   1.003  -0.891  0.00  0.00    +0.000 C 
ATOM     28  C   UNL     1       3.316  -1.003   0.645  0.00  0.00    +0.000 C 
ATOM     29  O   UNL     1       2.701  -1.918   1.224  0.00  0.00    +0.000 OA
ENDBRANCH   1  28
BRANCH  10  30
ATOM     30  C   UNL     1       5.330   1.363   1.247  0.00  0.00    +0.000 C 
ATOM     31  C   UNL     1       5.779   2.074   2.514  0.00  0.00    +0.000 C 
ATOM     32  C   UNL     1       5.471   3.545   2.197  0.00  0.00    +0.000 C 
ATOM     33  C   UNL     1       5.592   3.707   0.682  0.00  0.00    +0.000 C 
ATOM     34  C   UNL     1       5.798   2.311   0.134  0.00  0.00    +0.000 C 
ENDBRANCH  10  30
TORSDOF 4
