REMARK  Name = Ribostamycin
REMARK  16 active torsions:
REMARK  status: ('A' for Active; 'I' for Inactive)
REMARK    1  A    between atoms: C_2  and  O_3
REMARK    2  A    between atoms: O_3  and  C_4
REMARK    3  A    between atoms: C_5  and  O_6
REMARK    4  A    between atoms: C_7  and  N_8
REMARK    5  A    between atoms: C_10  and  N_11
REMARK    6  A    between atoms: C_12  and  O_13
REMARK    7  A    between atoms: O_13  and  C_14
REMARK    8  A    between atoms: C_16  and  C_17
REMARK    9  A    between atoms: C_17  and  N_18
REMARK   10  A    between atoms: C_19  and  O_20
REMARK   11  A    between atoms: C_21  and  O_22
REMARK   12  A    between atoms: C_23  and  N_24
REMARK   13  A    between atoms: C_26  and  C_27
REMARK   14  A    between atoms: C_27  and  O_28
REMARK   15  A    between atoms: C_29  and  O_30
REMARK   16  A    between atoms: C_31  and  O_32
REMARK                            x       y       z     vdW  Elec       q    Type
REMARK                         _______ _______ _______ _____ _____    ______ ____
ROOT
ATOM      1  C   UNL     1       0.118   2.737  -0.505  0.00  0.00    +0.000 C 
ATOM      2  C   UNL     1       0.469   4.210  -0.803  0.00  0.00    +0.000 C 
ATOM      3  C   UNL     1      -0.022   5.228   0.240  0.00  0.00    +0.000 C 
ATOM      4  C   UNL     1      -1.519   5.034   0.418  0.00  0.00    +0.000 C 
ATOM      5  C   UNL     1      -1.908   3.577   0.765  0.00  0.00    +0.000 C 
ATOM      6  C   UNL     1      -1.425   2.636  -0.377  0.00  0.00    +0.000 C 
ENDROOT
BRANCH   3   7
ATOM      7  N   UNL     1       0.683   5.189   1.531  0.00  0.00    +0.000 NA
ATOM      8  H   UNL     1       0.888   4.223   1.788  0.00  0.00    +0.000 HD
ATOM      9  H   UNL     1       0.063   5.526   2.267  0.00  0.00    +0.000 HD
ENDBRANCH   3   7
BRANCH   5  10
ATOM     10  N   UNL     1      -1.439   3.118   2.083  0.00  0.00    +0.000 NA
ATOM     11  H   UNL     1      -0.443   2.890   1.990  0.00  0.00    +0.000 HD
ATOM     12  H   UNL     1      -1.849   2.200   2.262  0.00  0.00    +0.000 HD
ENDBRANCH   5  10
BRANCH   2  13
ATOM     13  O   UNL     1       0.118   4.589  -2.138  0.00  0.00    +0.000 OA
ATOM     14  H   UNL     1      -0.781   4.251  -2.329  0.00  0.00    +0.000 HD
ENDBRANCH   2  13
BRANCH   6  15
ATOM     15  O   UNL     1      -1.947   3.012  -1.662  0.00  0.00    +0.000 OA
BRANCH  15  16
ATOM     16  C   UNL     1      -3.365   2.984  -1.775  0.00  0.00    +0.000 C 
ATOM     17  O   UNL     1      -3.960   3.991  -0.959  0.00  0.00    +0.000 OA
ATOM     18  C   UNL     1      -5.393   3.958  -0.877  0.00  0.00    +0.000 C 
ATOM     19  C   UNL     1      -5.921   4.258  -2.287  0.00  0.00    +0.000 C 
ATOM     20  C   UNL     1      -5.287   3.317  -3.337  0.00  0.00    +0.000 C 
ATOM     21  C   UNL     1      -3.740   3.273  -3.254  0.00  0.00    +0.000 C 
BRANCH  21  22
ATOM     22  N   UNL     1      -3.074   4.499  -3.762  0.00  0.00    +0.000 NA
ATOM     23  H   UNL     1      -3.028   5.210  -3.037  0.00  0.00    +0.000 HD
ATOM     24  H   UNL     1      -3.609   4.902  -4.534  0.00  0.00    +0.000 HD
ENDBRANCH  21  22
BRANCH  19  25
ATOM     25  O   UNL     1      -5.580   5.625  -2.613  0.00  0.00    +0.000 OA
ATOM     26  H   UNL     1      -4.726   5.820  -2.215  0.00  0.00    +0.000 HD
ENDBRANCH  19  25
BRANCH  20  27
ATOM     27  O   UNL     1      -5.836   1.995  -3.213  0.00  0.00    +0.000 OA
ATOM     28  H   UNL     1      -5.257   1.425  -2.693  0.00  0.00    +0.000 HD
ENDBRANCH  20  27
BRANCH  18  29
ATOM     29  C   UNL     1      -5.919   2.667  -0.193  0.00  0.00    +0.000 C 
BRANCH  29  30
ATOM     30  N   UNL     1      -7.297   2.686   0.278  0.00  0.00    +0.000 NA
ATOM     31  H   UNL     1      -7.951   2.875  -0.482  0.00  0.00    +0.000 HD
ATOM     32  H   UNL     1      -7.440   3.399   0.990  0.00  0.00    +0.000 HD
ENDBRANCH  29  30
ENDBRANCH  18  29
ENDBRANCH  15  16
ENDBRANCH   6  15
BRANCH   1  33
ATOM     33  O   UNL     1       0.738   2.251   0.697  0.00  0.00    +0.000 OA
BRANCH  33  34
ATOM     34  C   UNL     1       2.166   2.157   0.702  0.00  0.00    +0.000 C 
ATOM     35  O   UNL     1       2.844   3.411   0.559  0.00  0.00    +0.000 OA
ATOM     36  C   UNL     1       3.850   3.314  -0.474  0.00  0.00    +0.000 C 
ATOM     37  C   UNL     1       4.082   1.817  -0.660  0.00  0.00    +0.000 C 
ATOM     38  C   UNL     1       2.736   1.191  -0.330  0.00  0.00    +0.000 C 
BRANCH  38  39
ATOM     39  O   UNL     1       2.827  -0.134   0.194  0.00  0.00    +0.000 OA
ATOM     40  H   UNL     1       3.553  -0.133   0.846  0.00  0.00    +0.000 HD
ENDBRANCH  38  39
BRANCH  37  41
ATOM     41  O   UNL     1       5.056   1.351   0.286  0.00  0.00    +0.000 OA
ATOM     42  H   UNL     1       4.865   1.764   1.147  0.00  0.00    +0.000 HD
ENDBRANCH  37  41
BRANCH  36  43
ATOM     43  C   UNL     1       3.482   4.032  -1.793  0.00  0.00    +0.000 C 
BRANCH  43  44
ATOM     44  O   UNL     1       4.565   4.014  -2.710  0.00  0.00    +0.000 OA
ATOM     45  H   UNL     1       5.258   4.590  -2.343  0.00  0.00    +0.000 HD
ENDBRANCH  43  44
ENDBRANCH  36  43
ENDBRANCH  33  34
ENDBRANCH   1  33
TORSDOF 16
