REMARK  Name = Rifamycin
REMARK  17 active torsions:
REMARK  status: ('A' for Active; 'I' for Inactive)
REMARK    1  A    between atoms: C_1  and  O_2
REMARK    2  A    between atoms: O_2  and  C_3
REMARK    3  A    between atoms: C_7  and  C_8
REMARK    4  A    between atoms: C_11  and  C_12
REMARK    5  A    between atoms: C_13  and  O_14
REMARK    6  A    between atoms: C_16  and  O_17
REMARK    7  A    between atoms: C_22  and  C_23
REMARK    8  A    between atoms: C_27  and  C_28
REMARK    9  A    between atoms: C_29  and  O_30
REMARK   10  A    between atoms: C_31  and  C_32
REMARK   11  A    between atoms: C_33  and  O_34
REMARK   12  A    between atoms: C_35  and  C_36
REMARK   13  A    between atoms: C_37  and  O_38
REMARK   14  A    between atoms: O_38  and  C_39
REMARK   15  A    between atoms: C_39  and  C_40
REMARK   16  A    between atoms: C_42  and  C_43
REMARK   17  A    between atoms: C_45  and  O_46
REMARK                            x       y       z     vdW  Elec       q    Type
REMARK                         _______ _______ _______ _____ _____    ______ ____
ROOT
ATOM      1  C   UNL     1       2.544  -0.402   1.371  0.00  0.00    +0.000 C 
ATOM      2  C   UNL     1       2.920   0.629   2.356  0.00  0.00    +0.000 C 
ATOM      3  C   UNL     1       2.692   1.925   2.205  0.00  0.00    +0.000 C 
ATOM      4  O   UNL     1       2.933   2.781   3.230  0.00  0.00    +0.000 OA
ATOM      5  C   UNL     1       1.747   2.877   4.022  0.00  0.00    +0.000 C 
ATOM      6  C   UNL     1       2.092   3.839   5.135  0.00  0.00    +0.000 C 
ATOM      7  O   UNL     1       0.648   3.428   3.264  0.00  0.00    +0.000 OA
ATOM      8  C   UNL     1      -0.320   2.453   3.224  0.00  0.00    +0.000 A 
ATOM      9  C   UNL     1      -1.412   2.570   2.381  0.00  0.00    +0.000 A 
ATOM     10  C   UNL     1      -1.583   3.759   1.486  0.00  0.00    +0.000 C 
ATOM     11  C   UNL     1      -2.312   1.502   2.376  0.00  0.00    +0.000 A 
ATOM     12  C   UNL     1      -2.139   0.331   3.181  0.00  0.00    +0.000 A 
ATOM     13  C   UNL     1      -2.988  -0.804   3.058  0.00  0.00    +0.000 A 
ATOM     14  C   UNL     1      -2.815  -1.962   3.827  0.00  0.00    +0.000 A 
ATOM     15  N   UNL     1      -3.639  -3.103   3.751  0.00  0.00    +0.000 N 
ATOM     16  C   UNL     1      -4.974  -3.129   3.403  0.00  0.00    +0.000 C 
ATOM     17  O   UNL     1      -5.711  -2.164   3.224  0.00  0.00    +0.000 OA
ATOM     18  C   UNL     1      -5.597  -4.492   3.492  0.00  0.00    +0.000 C 
ATOM     19  C   UNL     1      -6.992  -4.479   4.058  0.00  0.00    +0.000 C 
ATOM     20  C   UNL     1      -5.043  -5.659   3.113  0.00  0.00    +0.000 C 
ATOM     21  C   UNL     1      -3.743  -5.885   2.528  0.00  0.00    +0.000 C 
ATOM     22  C   UNL     1      -3.213  -7.115   2.445  0.00  0.00    +0.000 C 
ATOM     23  C   UNL     1      -1.784  -7.475   2.078  0.00  0.00    +0.000 C 
ATOM     24  C   UNL     1      -1.187  -8.144   3.329  0.00  0.00    +0.000 C 
ATOM     25  C   UNL     1      -0.902  -6.293   1.582  0.00  0.00    +0.000 C 
ATOM     26  C   UNL     1       0.613  -6.613   1.462  0.00  0.00    +0.000 C 
ATOM     27  C   UNL     1       0.871  -7.849   0.592  0.00  0.00    +0.000 C 
ATOM     28  C   UNL     1       1.466  -5.424   0.940  0.00  0.00    +0.000 C 
ATOM     29  C   UNL     1       1.300  -4.122   1.739  0.00  0.00    +0.000 C 
ATOM     30  C   UNL     1       1.450  -4.325   3.257  0.00  0.00    +0.000 C 
ATOM     31  C   UNL     1       2.221  -2.962   1.196  0.00  0.00    +0.000 C 
ATOM     32  C   UNL     1       1.706  -1.615   1.804  0.00  0.00    +0.000 C 
ATOM     33  C   UNL     1       0.209  -1.441   1.583  0.00  0.00    +0.000 C 
ATOM     34  C   UNL     1      -1.727  -2.033   4.692  0.00  0.00    +0.000 A 
ATOM     35  C   UNL     1      -0.855  -0.949   4.814  0.00  0.00    +0.000 A 
ATOM     36  C   UNL     1      -1.020   0.250   4.067  0.00  0.00    +0.000 A 
ATOM     37  C   UNL     1      -0.116   1.341   4.040  0.00  0.00    +0.000 A 
ATOM     38  C   UNL     1       1.201   1.573   4.627  0.00  0.00    +0.000 C 
ATOM     39  O   UNL     1       1.826   0.845   5.404  0.00  0.00    +0.000 OA
ATOM     40  H   UNL     1      -3.258  -3.959   4.128  0.00  0.00    +0.000 HD
ENDROOT
BRANCH   1  42
ATOM     41  C   UNL     1       1.114   0.311  -0.416  0.00  0.00    +0.000 C 
ATOM     42  O   UNL     1       2.433   0.144   0.056  0.00  0.00    +0.000 OA
ENDBRANCH   1  42
BRANCH  11  43
ATOM     43  O   UNL     1      -3.408   1.542   1.537  0.00  0.00    +0.000 OA
ATOM     44  H   UNL     1      -3.464   2.399   1.082  0.00  0.00    +0.000 HD
ENDBRANCH  11  43
BRANCH  13  45
ATOM     45  O   UNL     1      -3.895  -0.865   2.024  0.00  0.00    +0.000 OA
ATOM     46  H   UNL     1      -4.033   0.041   1.687  0.00  0.00    +0.000 HD
ENDBRANCH  13  45
BRANCH  25  47
ATOM     47  O   UNL     1      -1.382  -5.801   0.323  0.00  0.00    +0.000 OA
ATOM     48  H   UNL     1      -1.457  -6.560  -0.284  0.00  0.00    +0.000 HD
ENDBRANCH  25  47
BRANCH  28  49
ATOM     49  O   UNL     1       1.119  -5.146  -0.422  0.00  0.00    +0.000 OA
ATOM     50  H   UNL     1       0.159  -4.938  -0.428  0.00  0.00    +0.000 HD
ENDBRANCH  28  49
BRANCH  35  51
ATOM     51  O   UNL     1       0.204  -1.078   5.662  0.00  0.00    +0.000 OA
ATOM     52  H   UNL     1       0.210  -1.930   6.123  0.00  0.00    +0.000 HD
ENDBRANCH  35  51
BRANCH  31  53
ATOM     53  O   UNL     1       3.610  -3.258   1.602  0.00  0.00    +0.000 OA
BRANCH  53  54
ATOM     54  C   UNL     1       4.797  -2.718   1.198  0.00  0.00    +0.000 C 
ATOM     55  C   UNL     1       4.829  -1.676   0.100  0.00  0.00    +0.000 C 
ATOM     56  O   UNL     1       5.832  -3.006   1.797  0.00  0.00    +0.000 OA
ENDBRANCH  53  54
ENDBRANCH  31  53
TORSDOF 8
