REMARK  Name = Rilmenidine
REMARK  3 active torsions:
REMARK  status: ('A' for Active; 'I' for Inactive)
REMARK    1  A    between atoms: C_3  and  C_4
REMARK    2  A    between atoms: C_4  and  N_5
REMARK    3  A    between atoms: C_4  and  C_11
REMARK                            x       y       z     vdW  Elec       q    Type
REMARK                         _______ _______ _______ _____ _____    ______ ____
ROOT
ATOM      1  C   UNL     1       1.415  -0.888   1.180  0.00  0.00    +0.000 C 
ENDROOT
BRANCH   1   2
ATOM      2  N   UNL     1       1.117  -2.310   1.414  0.00  0.00    +0.000 N 
ATOM      3  C   UNL     1      -0.102  -2.757   1.874  0.00  0.00    +0.000 C 
ATOM      4  N   UNL     1      -0.349  -3.467   2.917  0.00  0.00    +0.000 NA
ATOM      5  C   UNL     1      -1.808  -3.729   2.825  0.00  0.00    +0.000 C 
ATOM      6  C   UNL     1      -2.309  -2.746   1.807  0.00  0.00    +0.000 C 
ATOM      7  O   UNL     1      -1.141  -2.478   1.055  0.00  0.00    +0.000 OA
ATOM      8  H   UNL     1       1.872  -2.788   1.888  0.00  0.00    +0.000 HD
ENDBRANCH   1   2
BRANCH   1  11
ATOM      9  C   UNL     1       0.023   0.999  -0.005  0.00  0.00    +0.000 C 
ATOM     10  C   UNL     1      -0.848  -0.201  -0.124  0.00  0.00    +0.000 C 
ATOM     11  C   UNL     1       0.647  -0.380  -0.015  0.00  0.00    +0.000 C 
ENDBRANCH   1  11
BRANCH   1  12
ATOM     12  C   UNL     1       2.939  -0.716   0.954  0.00  0.00    +0.000 C 
ATOM     13  C   UNL     1       3.557  -0.433  -0.412  0.00  0.00    +0.000 C 
ATOM     14  C   UNL     1       3.551   0.642   0.634  0.00  0.00    +0.000 C 
ENDBRANCH   1  12
TORSDOF 3
