REMARK  Name = Rilpivirine
REMARK  8 active torsions:
REMARK  status: ('A' for Active; 'I' for Inactive)
REMARK    1  A    between atoms: C_1  and  C_2
REMARK    2  A    between atoms: C_4  and  C_5
REMARK    3  A    between atoms: C_6  and  C_7
REMARK    4  A    between atoms: C_10  and  C_11
REMARK    5  A    between atoms: C_12  and  N_13
REMARK    6  A    between atoms: N_13  and  C_14
REMARK    7  A    between atoms: N_19  and  C_20
REMARK    8  A    between atoms: C_23  and  C_26
REMARK                            x       y       z     vdW  Elec       q    Type
REMARK                         _______ _______ _______ _____ _____    ______ ____
ROOT
ATOM      1  C   UNL     1       3.840  -1.274   0.107  0.00  0.00    +0.000 A 
ATOM      2  C   UNL     1       4.173  -0.540   1.229  0.00  0.00    +0.000 A 
ATOM      3  C   UNL     1       5.283   0.248   1.130  0.00  0.00    +0.000 A 
ATOM      4  N   UNL     1       6.108   0.189   0.089  0.00  0.00    +0.000 NA
ATOM      5  C   UNL     1       5.824  -0.685  -0.891  0.00  0.00    +0.000 A 
ATOM      6  N   UNL     1       6.756  -0.789  -1.924  0.00  0.00    +0.000 N 
ATOM      7  N   UNL     1       4.691  -1.414  -0.934  0.00  0.00    +0.000 NA
ATOM      8  H   UNL     1       6.474  -1.392  -2.680  0.00  0.00    +0.000 HD
ENDROOT
BRANCH   6   9
ATOM      9  C   UNL     1       8.028  -0.198  -1.944  0.00  0.00    +0.000 A 
ATOM     10  C   UNL     1       8.915  -0.360  -0.868  0.00  0.00    +0.000 A 
ATOM     11  C   UNL     1      10.162   0.272  -0.851  0.00  0.00    +0.000 A 
ATOM     12  C   UNL     1      10.547   1.079  -1.921  0.00  0.00    +0.000 A 
ATOM     13  C   UNL     1       9.660   1.281  -2.983  0.00  0.00    +0.000 A 
ATOM     14  C   UNL     1       8.413   0.637  -2.997  0.00  0.00    +0.000 A 
BRANCH  12  15
ATOM     15  C   UNL     1      11.863   1.658  -1.943  0.00  0.00    +0.000 C 
ATOM     16  N   UNL     1      12.936   2.086  -1.968  0.00  0.00    +0.000 NA
ENDBRANCH  12  15
ENDBRANCH   6   9
BRANCH   1  17
ATOM     17  N   UNL     1       2.517  -1.755   0.017  0.00  0.00    +0.000 N 
ATOM     18  H   UNL     1       2.477  -2.756  -0.109  0.00  0.00    +0.000 HD
BRANCH  17  26
ATOM     19  C   UNL     1       2.382   1.289  -0.100  0.00  0.00    +0.000 C 
ATOM     20  C   UNL     1       1.191   0.378  -0.047  0.00  0.00    +0.000 A 
ATOM     21  C   UNL     1      -0.062   1.029  -0.021  0.00  0.00    +0.000 A 
ATOM     22  C   UNL     1      -1.246   0.305  -0.000  0.00  0.00    +0.000 A 
ATOM     23  C   UNL     1      -1.150  -1.087   0.001  0.00  0.00    +0.000 A 
ATOM     24  C   UNL     1       0.078  -1.767   0.003  0.00  0.00    +0.000 A 
ATOM     25  C   UNL     1       0.014  -3.270  -0.004  0.00  0.00    +0.000 C 
ATOM     26  C   UNL     1       1.288  -1.043  -0.013  0.00  0.00    +0.000 A 
BRANCH  22  27
ATOM     27  C   UNL     1      -2.546   0.987  -0.002  0.00  0.00    +0.000 C 
ATOM     28  C   UNL     1      -3.701   0.310   0.022  0.00  0.00    +0.000 C 
BRANCH  28  29
ATOM     29  C   UNL     1      -5.051   1.009   0.009  0.00  0.00    +0.000 C 
ATOM     30  N   UNL     1      -6.170   1.588  -0.002  0.00  0.00    +0.000 NA
ENDBRANCH  28  29
ENDBRANCH  22  27
ENDBRANCH  17  26
ENDBRANCH   1  17
TORSDOF 6
