REMARK  Name = Riluzole
REMARK  2 active torsions:
REMARK  status: ('A' for Active; 'I' for Inactive)
REMARK    1  A    between atoms: C_8  and  O_9
REMARK    2  A    between atoms: O_9  and  C_10
REMARK                            x       y       z     vdW  Elec       q    Type
REMARK                         _______ _______ _______ _____ _____    ______ ____
ROOT
ATOM      1  N   UNL     1      -3.109   0.672   0.007  0.00  0.00    +0.000 N 
ATOM      2  C   UNL     1      -1.797   0.426   0.003  0.00  0.00    +0.000 A 
ATOM      3  N   UNL     1      -0.875   1.358   0.003  0.00  0.00    +0.000 NA
ATOM      4  C   UNL     1       0.384   0.778   0.001  0.00  0.00    +0.000 A 
ATOM      5  C   UNL     1       0.387  -0.614   0.000  0.00  0.00    +0.000 A 
ATOM      6  S   UNL     1      -1.230  -1.187  -0.001  0.00  0.00    +0.000 S 
ATOM      7  C   UNL     1       1.569  -1.368  -0.000  0.00  0.00    +0.000 A 
ATOM      8  C   UNL     1       2.793  -0.696   0.000  0.00  0.00    +0.000 A 
ATOM      9  C   UNL     1       2.817   0.701  -0.002  0.00  0.00    +0.000 A 
ATOM     10  C   UNL     1       1.626   1.447  -0.001  0.00  0.00    +0.000 A 
ATOM     11  H   UNL     1      -3.451   1.623  -0.009  0.00  0.00    +0.000 HD
ATOM     12  H   UNL     1      -3.787  -0.078  -0.023  0.00  0.00    +0.000 HD
ENDROOT
BRANCH   8  13
ATOM     13  O   UNL     1       4.018  -1.309   0.004  0.00  0.00    +0.000 OA
BRANCH  13  14
ATOM     14  C   UNL     1       4.021  -2.732   0.013  0.00  0.00    +0.000 C 
ATOM     15  F   UNL     1       3.406  -3.212   1.117  0.00  0.00    +0.000 F 
ATOM     16  F   UNL     1       3.414  -3.226  -1.089  0.00  0.00    +0.000 F 
ATOM     17  F   UNL     1       5.297  -3.174   0.020  0.00  0.00    +0.000 F 
ENDBRANCH  13  14
ENDBRANCH   8  13
TORSDOF 2
