REMARK  Name = Rimantadine
REMARK  3 active torsions:
REMARK  status: ('A' for Active; 'I' for Inactive)
REMARK    1  A    between atoms: C_1  and  C_2
REMARK    2  A    between atoms: C_2  and  N_3
REMARK    3  A    between atoms: C_2  and  C_4
REMARK                            x       y       z     vdW  Elec       q    Type
REMARK                         _______ _______ _______ _____ _____    ______ ____
ROOT
ATOM      1  C   UNL     1       2.929  -0.685  -1.210  0.00  0.00    +0.000 C 
ATOM      2  C   UNL     1       4.432  -0.403  -1.514  0.00  0.00    +0.000 C 
ATOM      3  C   UNL     1       4.842  -1.035  -2.865  0.00  0.00    +0.000 C 
ATOM      4  C   UNL     1       4.615  -2.555  -2.810  0.00  0.00    +0.000 C 
ATOM      5  C   UNL     1       3.136  -2.856  -2.529  0.00  0.00    +0.000 C 
ATOM      6  C   UNL     1       2.260  -2.250  -3.633  0.00  0.00    +0.000 C 
ATOM      7  C   UNL     1       2.502  -0.736  -3.727  0.00  0.00    +0.000 C 
ATOM      8  C   UNL     1       3.982  -0.449  -3.996  0.00  0.00    +0.000 C 
ATOM      9  C   UNL     1       2.107  -0.097  -2.395  0.00  0.00    +0.000 C 
ATOM     10  C   UNL     1       2.748  -2.230  -1.186  0.00  0.00    +0.000 C 
ENDROOT
BRANCH   1  12
ATOM     11  C   UNL     1       0.936   0.019   0.281  0.00  0.00    +0.000 C 
ATOM     12  C   UNL     1       2.464  -0.031   0.136  0.00  0.00    +0.000 C 
BRANCH  12  13
ATOM     13  N   UNL     1       3.022  -0.720   1.308  0.00  0.00    +0.000 NA
ATOM     14  H   UNL     1       2.681  -1.677   1.333  0.00  0.00    +0.000 HD
ATOM     15  H   UNL     1       2.653  -0.291   2.161  0.00  0.00    +0.000 HD
ENDBRANCH  12  13
ENDBRANCH   1  12
TORSDOF 2
