REMARK  Name = Rimexolone
REMARK  8 active torsions:
REMARK  status: ('A' for Active; 'I' for Inactive)
REMARK    1  A    between atoms: C_4  and  C_5
REMARK    2  A    between atoms: C_6  and  C_7
REMARK    3  A    between atoms: C_6  and  C_8
REMARK    4  A    between atoms: C_8  and  C_10
REMARK    5  A    between atoms: C_10  and  C_11
REMARK    6  A    between atoms: C_12  and  C_13
REMARK    7  A    between atoms: C_15  and  O_16
REMARK    8  A    between atoms: C_29  and  C_30
REMARK                            x       y       z     vdW  Elec       q    Type
REMARK                         _______ _______ _______ _____ _____    ______ ____
ROOT
ATOM      1  C   UNL     1       1.763  -0.033  -0.156  0.00  0.00    +0.000 C 
ATOM      2  C   UNL     1       2.317   0.064  -1.466  0.00  0.00    +0.000 C 
ATOM      3  C   UNL     1       3.391  -0.327  -0.464  0.00  0.00    +0.000 C 
ATOM      4  C   UNL     1       5.110   0.186  -1.028  0.00  0.00    +0.000 C 
ATOM      5  C   UNL     1       2.547  -0.970   1.359  0.00  0.00    +0.000 C 
ATOM      6  C   UNL     1       0.835  -1.035   1.849  0.00  0.00    +0.000 C 
ATOM      7  C   UNL     1       2.610  -1.656   0.210  0.00  0.00    +0.000 C 
ATOM      8  C   UNL     1       1.904  -2.857  -0.272  0.00  0.00    +0.000 C 
ATOM      9  C   UNL     1       4.388  -1.627   0.773  0.00  0.00    +0.000 C 
ATOM     10  C   UNL     1       4.702  -0.065   1.611  0.00  0.00    +0.000 C 
ATOM     11  C   UNL     1       4.014   1.403   0.993  0.00  0.00    +0.000 C 
ATOM     12  C   UNL     1       2.384   1.356   0.800  0.00  0.00    +0.000 C 
ATOM     13  C   UNL     1       1.934   2.608   0.064  0.00  0.00    +0.000 C 
ATOM     14  C   UNL     1       2.495   3.877   0.669  0.00  0.00    +0.000 C 
ATOM     15  C   UNL     1       3.979   3.927   0.912  0.00  0.00    +0.000 C 
ATOM     16  C   UNL     1       4.752   4.997   0.644  0.00  0.00    +0.000 C 
ATOM     17  C   UNL     1       6.158   4.850   1.115  0.00  0.00    +0.000 C 
ATOM     18  O   UNL     1       6.690   5.369   2.087  0.00  0.00    +0.000 OA
ATOM     19  C   UNL     1       6.888   3.802   0.328  0.00  0.00    +0.000 C 
ATOM     20  C   UNL     1       6.237   2.831   1.032  0.00  0.00    +0.000 C 
ATOM     21  C   UNL     1       4.664   2.712   1.537  0.00  0.00    +0.000 C 
ATOM     22  C   UNL     1       4.241   2.688   3.009  0.00  0.00    +0.000 C 
ENDROOT
BRANCH   5  23
ATOM     23  C   UNL     1       2.777  -2.435   2.531  0.00  0.00    +0.000 C 
ATOM     24  O   UNL     1       3.253  -3.515   2.135  0.00  0.00    +0.000 OA
BRANCH  23  25
ATOM     25  C   UNL     1       2.231  -2.585   4.066  0.00  0.00    +0.000 C 
ATOM     26  C   UNL     1       2.740  -3.947   4.695  0.00  0.00    +0.000 C 
ENDBRANCH  23  25
ENDBRANCH   5  23
BRANCH  10  27
ATOM     27  O   UNL     1       4.264  -0.234   2.975  0.00  0.00    +0.000 OA
ATOM     28  H   UNL     1       3.359   0.115   3.066  0.00  0.00    +0.000 HD
ENDBRANCH  10  27
TORSDOF 3
