REMARK  Name = Rimegepant
REMARK  5 active torsions:
REMARK  status: ('A' for Active; 'I' for Inactive)
REMARK    1  A    between atoms: N_1  and  C_2
REMARK    2  A    between atoms: C_3  and  C_32
REMARK    3  A    between atoms: C_6  and  O_7
REMARK    4  A    between atoms: O_7  and  C_8
REMARK    5  A    between atoms: C_13  and  N_16
REMARK                            x       y       z     vdW  Elec       q    Type
REMARK                         _______ _______ _______ _____ _____    ______ ____
ROOT
ATOM      1  C   UNL     1       2.665  -0.035  -0.073  0.00  0.00    +0.000 C 
ATOM      2  C   UNL     1       3.311   0.105  -1.503  0.00  0.00    +0.000 C 
ATOM      3  C   UNL     1       2.781  -0.854  -2.588  0.00  0.00    +0.000 C 
ATOM      4  C   UNL     1       2.615  -2.333  -2.223  0.00  0.00    +0.000 C 
ATOM      5  C   UNL     1       1.693  -2.582  -1.014  0.00  0.00    +0.000 C 
ATOM      6  C   UNL     1       2.622  -2.595   0.194  0.00  0.00    +0.000 A 
ATOM      7  C   UNL     1       3.103  -1.332   0.631  0.00  0.00    +0.000 A 
ATOM      8  C   UNL     1       4.025  -1.337   1.683  0.00  0.00    +0.000 A 
ATOM      9  C   UNL     1       4.475  -2.544   2.208  0.00  0.00    +0.000 A 
ATOM     10  C   UNL     1       3.982  -3.723   1.674  0.00  0.00    +0.000 A 
ATOM     11  N   UNL     1       3.068  -3.778   0.680  0.00  0.00    +0.000 NA
ENDROOT
BRANCH   2  12
ATOM     12  C   UNL     1       3.175   1.499  -2.141  0.00  0.00    +0.000 A 
ATOM     13  C   UNL     1       1.957   2.197  -2.244  0.00  0.00    +0.000 A 
ATOM     14  F   UNL     1       0.836   1.665  -1.731  0.00  0.00    +0.000 F 
ATOM     15  C   UNL     1       1.887   3.425  -2.906  0.00  0.00    +0.000 A 
ATOM     16  F   UNL     1       0.755   4.141  -2.903  0.00  0.00    +0.000 F 
ATOM     17  C   UNL     1       2.996   3.928  -3.572  0.00  0.00    +0.000 A 
ATOM     18  C   UNL     1       4.197   3.222  -3.527  0.00  0.00    +0.000 A 
ATOM     19  C   UNL     1       4.299   2.044  -2.779  0.00  0.00    +0.000 A 
ENDBRANCH   2  12
BRANCH   1  20
ATOM     20  N   UNL     1       2.929   1.148   0.760  0.00  0.00    +0.000 NA
ATOM     21  H   UNL     1       2.436   1.949   0.365  0.00  0.00    +0.000 HD
ATOM     22  H   UNL     1       3.918   1.382   0.711  0.00  0.00    +0.000 HD
ENDBRANCH   1  20
BRANCH   5  23
ATOM     23  O   UNL     1       0.772  -3.652  -1.297  0.00  0.00    +0.000 OA
BRANCH  23  24
ATOM     24  C   UNL     1      -0.573  -3.380  -1.546  0.00  0.00    +0.000 C 
ATOM     25  O   UNL     1      -1.402  -4.265  -1.332  0.00  0.00    +0.000 OA
ATOM     26  N   UNL     1      -0.977  -2.110  -2.067  0.00  0.00    +0.000 N 
ATOM     27  C   UNL     1      -1.920  -1.313  -1.325  0.00  0.00    +0.000 C 
ATOM     28  C   UNL     1      -2.677  -0.412  -2.329  0.00  0.00    +0.000 C 
ATOM     29  C   UNL     1      -1.846   0.824  -3.207  0.00  0.00    +0.000 C 
ATOM     30  C   UNL     1      -0.709  -0.126  -3.787  0.00  0.00    +0.000 C 
ATOM     31  C   UNL     1      -0.146  -1.253  -2.853  0.00  0.00    +0.000 C 
BRANCH  29  32
ATOM     32  N   UNL     1      -1.569   2.419  -2.645  0.00  0.00    +0.000 N 
ATOM     33  C   UNL     1      -2.581   1.879  -1.690  0.00  0.00    +0.000 A 
ATOM     34  O   UNL     1      -3.843   1.821  -1.963  0.00  0.00    +0.000 OA
ATOM     35  N   UNL     1      -1.963   2.176  -0.529  0.00  0.00    +0.000 N 
ATOM     36  C   UNL     1      -2.460   3.416  -0.658  0.00  0.00    +0.000 A 
ATOM     37  N   UNL     1      -3.555   3.564   0.218  0.00  0.00    +0.000 NA
ATOM     38  C   UNL     1      -4.187   4.702   0.195  0.00  0.00    +0.000 A 
ATOM     39  C   UNL     1      -3.438   5.676  -0.407  0.00  0.00    +0.000 A 
ATOM     40  C   UNL     1      -2.294   5.223  -1.447  0.00  0.00    +0.000 A 
ATOM     41  C   UNL     1      -2.202   3.878  -1.912  0.00  0.00    +0.000 A 
ATOM     42  H   UNL     1      -0.966   2.230  -0.776  0.00  0.00    +0.000 HD
ENDBRANCH  29  32
ENDBRANCH  23  24
ENDBRANCH   5  23
TORSDOF 5
