REMARK  Name = Rimonabant
REMARK  5 active torsions:
REMARK  status: ('A' for Active; 'I' for Inactive)
REMARK    1  A    between atoms: C_1  and  C_2
REMARK    2  A    between atoms: C_3  and  C_24
REMARK    3  A    between atoms: N_4  and  C_16
REMARK    4  A    between atoms: C_6  and  C_7
REMARK    5  A    between atoms: N_9  and  N_10
REMARK                            x       y       z     vdW  Elec       q    Type
REMARK                         _______ _______ _______ _____ _____    ______ ____
ROOT
ATOM      1  C   UNL     1       1.245   0.196   0.071  0.00  0.00    +0.000 C 
ATOM      2  C   UNL     1       2.743   0.141   0.086  0.00  0.00    +0.000 A 
ATOM      3  C   UNL     1       3.703   1.186   0.099  0.00  0.00    +0.000 A 
ATOM      4  N   UNL     1       4.959   0.536  -0.001  0.00  0.00    +0.000 N 
ATOM      5  N   UNL     1       4.808  -0.807   0.003  0.00  0.00    +0.000 NA
ATOM      6  C   UNL     1       3.493  -1.084   0.056  0.00  0.00    +0.000 A 
ENDROOT
BRANCH   4   7
ATOM      7  C   UNL     1       6.317   1.045  -0.008  0.00  0.00    +0.000 A 
ATOM      8  C   UNL     1       7.244   0.662  -1.008  0.00  0.00    +0.000 A 
ATOM      9 CL   UNL     1       6.817  -0.318  -2.370  0.00  0.00    +0.000 Cl
ATOM     10  C   UNL     1       8.575   1.141  -1.001  0.00  0.00    +0.000 A 
ATOM     11  C   UNL     1       9.016   1.961   0.029  0.00  0.00    +0.000 A 
ATOM     12 CL   UNL     1      10.630   2.572   0.024  0.00  0.00    +0.000 Cl
ATOM     13  C   UNL     1       8.142   2.291   1.062  0.00  0.00    +0.000 A 
ATOM     14  C   UNL     1       6.799   1.844   1.045  0.00  0.00    +0.000 A 
ENDBRANCH   4   7
BRANCH   3  15
ATOM     15  C   UNL     1       3.482   2.663   0.086  0.00  0.00    +0.000 A 
ATOM     16  C   UNL     1       2.742   3.287   1.109  0.00  0.00    +0.000 A 
ATOM     17  C   UNL     1       2.473   4.671   1.093  0.00  0.00    +0.000 A 
ATOM     18  C   UNL     1       2.931   5.460   0.044  0.00  0.00    +0.000 A 
ATOM     19 CL   UNL     1       2.584   7.147   0.013  0.00  0.00    +0.000 Cl
ATOM     20  C   UNL     1       3.665   4.873  -0.982  0.00  0.00    +0.000 A 
ATOM     21  C   UNL     1       3.936   3.486  -0.962  0.00  0.00    +0.000 A 
ENDBRANCH   3  15
BRANCH   6  22
ATOM     22  C   UNL     1       3.065  -2.531   0.056  0.00  0.00    +0.000 C 
ATOM     23  O   UNL     1       3.934  -3.413   0.047  0.00  0.00    +0.000 OA
ATOM     24  N   UNL     1       1.687  -2.837   0.068  0.00  0.00    +0.000 N 
ATOM     25  H   UNL     1       0.998  -2.105   0.122  0.00  0.00    +0.000 HD
BRANCH  24  26
ATOM     26  N   UNL     1       1.099  -4.158   0.062  0.00  0.00    +0.000 NA
ATOM     27  C   UNL     1       0.381  -4.402  -1.203  0.00  0.00    +0.000 C 
ATOM     28  C   UNL     1      -0.356  -5.747  -1.188  0.00  0.00    +0.000 C 
ATOM     29  C   UNL     1       0.595  -6.898  -0.881  0.00  0.00    +0.000 C 
ATOM     30  C   UNL     1       1.370  -6.614   0.398  0.00  0.00    +0.000 C 
ATOM     31  C   UNL     1       2.049  -5.250   0.330  0.00  0.00    +0.000 C 
ENDBRANCH  24  26
ENDBRANCH   6  22
TORSDOF 4
