REMARK  Name = Riociguat
REMARK  8 active torsions:
REMARK  status: ('A' for Active; 'I' for Inactive)
REMARK    1  A    between atoms: C_1  and  O_2
REMARK    2  A    between atoms: O_2  and  C_3
REMARK    3  A    between atoms: N_5  and  C_6
REMARK    4  A    between atoms: N_5  and  C_7
REMARK    5  A    between atoms: C_8  and  N_9
REMARK    6  A    between atoms: C_11  and  C_15
REMARK    7  A    between atoms: N_17  and  C_18
REMARK    8  A    between atoms: C_18  and  C_19
REMARK                            x       y       z     vdW  Elec       q    Type
REMARK                         _______ _______ _______ _____ _____    ______ ____
ROOT
ATOM      1  C   UNL     1       5.322  -1.990  -1.382  0.00  0.00    +0.000 A 
ATOM      2  C   UNL     1       4.918  -2.443  -2.653  0.00  0.00    +0.000 A 
ATOM      3  N   UNL     1       5.572  -3.382  -3.361  0.00  0.00    +0.000 NA
ATOM      4  C   UNL     1       6.684  -3.887  -2.808  0.00  0.00    +0.000 A 
ATOM      5  N   UNL     1       7.158  -3.558  -1.586  0.00  0.00    +0.000 NA
ATOM      6  C   UNL     1       6.490  -2.607  -0.902  0.00  0.00    +0.000 A 
ATOM      7  N   UNL     1       7.112  -2.224   0.289  0.00  0.00    +0.000 N 
ATOM      8  H   UNL     1       7.857  -2.868   0.539  0.00  0.00    +0.000 HD
ATOM      9  H   UNL     1       6.489  -2.005   1.053  0.00  0.00    +0.000 HD
ENDROOT
BRANCH   4  10
ATOM     10  C   UNL     1       7.442  -4.894  -3.577  0.00  0.00    +0.000 A 
ATOM     11  N   UNL     1       7.947  -4.679  -4.817  0.00  0.00    +0.000 NA
ATOM     12  N   UNL     1       8.609  -5.834  -5.124  0.00  0.00    +0.000 N 
ATOM     13  C   UNL     1       8.551  -6.760  -4.105  0.00  0.00    +0.000 A 
ATOM     14  C   UNL     1       7.760  -6.203  -3.116  0.00  0.00    +0.000 A 
ATOM     15  C   UNL     1       7.490  -6.990  -1.982  0.00  0.00    +0.000 A 
ATOM     16  C   UNL     1       8.016  -8.281  -1.935  0.00  0.00    +0.000 A 
ATOM     17  C   UNL     1       8.803  -8.717  -2.982  0.00  0.00    +0.000 A 
ATOM     18  N   UNL     1       9.121  -7.981  -4.059  0.00  0.00    +0.000 NA
BRANCH  12  19
ATOM     19  C   UNL     1       9.276  -5.932  -6.436  0.00  0.00    +0.000 C 
BRANCH  19  20
ATOM     20  C   UNL     1       9.965  -7.247  -6.699  0.00  0.00    +0.000 A 
ATOM     21  C   UNL     1       9.213  -8.426  -6.781  0.00  0.00    +0.000 A 
ATOM     22  F   UNL     1       7.873  -8.362  -6.721  0.00  0.00    +0.000 F 
ATOM     23  C   UNL     1       9.823  -9.674  -6.764  0.00  0.00    +0.000 A 
ATOM     24  C   UNL     1      11.202  -9.757  -6.586  0.00  0.00    +0.000 A 
ATOM     25  C   UNL     1      11.964  -8.590  -6.505  0.00  0.00    +0.000 A 
ATOM     26  C   UNL     1      11.363  -7.343  -6.678  0.00  0.00    +0.000 A 
ENDBRANCH  19  20
ENDBRANCH  12  19
ENDBRANCH   4  10
BRANCH   1  29
ATOM     27  C   UNL     1       3.165  -1.009  -0.633  0.00  0.00    +0.000 C 
ATOM     28  O   UNL     1       2.484  -1.911  -1.139  0.00  0.00    +0.000 OA
ATOM     29  N   UNL     1       4.565  -0.989  -0.632  0.00  0.00    +0.000 N 
ATOM     30  C   UNL     1       5.301   0.133  -0.053  0.00  0.00    +0.000 C 
BRANCH  27  32
ATOM     31  C   UNL     1       1.136   0.053  -0.063  0.00  0.00    +0.000 C 
ATOM     32  O   UNL     1       2.573   0.065  -0.032  0.00  0.00    +0.000 OA
ENDBRANCH  27  32
ENDBRANCH   1  29
BRANCH   2  33
ATOM     33  N   UNL     1       3.917  -1.786  -3.386  0.00  0.00    +0.000 N 
ATOM     34  H   UNL     1       3.109  -1.573  -2.811  0.00  0.00    +0.000 HD
ATOM     35  H   UNL     1       3.660  -2.381  -4.168  0.00  0.00    +0.000 HD
ENDBRANCH   2  33
TORSDOF 6
