REMARK  Name = Ripretinib
REMARK  7 active torsions:
REMARK  status: ('A' for Active; 'I' for Inactive)
REMARK    1  A    between atoms: C_1  and  C_2
REMARK    2  A    between atoms: C_2  and  N_3
REMARK    3  A    between atoms: C_6  and  C_16
REMARK    4  A    between atoms: C_11  and  N_12
REMARK    5  A    between atoms: N_12  and  C_13
REMARK    6  A    between atoms: C_22  and  N_23
REMARK    7  A    between atoms: N_26  and  C_27
REMARK                            x       y       z     vdW  Elec       q    Type
REMARK                         _______ _______ _______ _____ _____    ______ ____
ROOT
ATOM      1  C   UNL     1       2.596   4.999  -0.769  0.00  0.00    +0.000 A 
ATOM      2  C   UNL     1       2.995   5.634   0.407  0.00  0.00    +0.000 A 
ATOM      3 BR   UNL     1       4.259   4.866   1.603  0.00  0.00    +0.000 Br
ATOM      4  C   UNL     1       2.467   6.889   0.724  0.00  0.00    +0.000 A 
ATOM      5  C   UNL     1       1.450   7.453  -0.065  0.00  0.00    +0.000 A 
ATOM      6  F   UNL     1       0.903   8.611   0.338  0.00  0.00    +0.000 F 
ATOM      7  C   UNL     1       1.006   6.836  -1.239  0.00  0.00    +0.000 A 
ATOM      8  C   UNL     1       1.665   5.653  -1.594  0.00  0.00    +0.000 A 
ENDROOT
BRANCH   1  12
ATOM      9  N   UNL     1       2.947   1.192  -0.766  0.00  0.00    +0.000 N 
ATOM     10  C   UNL     1       2.635   2.472  -0.313  0.00  0.00    +0.000 A 
ATOM     11  O   UNL     1       2.040   2.674   0.755  0.00  0.00    +0.000 OA
ATOM     12  C   UNL     1       2.998   3.636  -1.179  0.00  0.00    +0.000 A 
ATOM     13  C   UNL     1       3.584   3.426  -2.371  0.00  0.00    +0.000 A 
ATOM     14  C   UNL     1       3.963   2.081  -2.782  0.00  0.00    +0.000 A 
ATOM     15  C   UNL     1       3.656   0.979  -1.987  0.00  0.00    +0.000 A 
ATOM     16  C   UNL     1       4.088  -0.281  -2.411  0.00  0.00    +0.000 A 
ATOM     17  C   UNL     1       4.921  -0.405  -3.520  0.00  0.00    +0.000 A 
ATOM     18  N   UNL     1       5.170   0.649  -4.316  0.00  0.00    +0.000 NA
ATOM     19  C   UNL     1       4.657   1.850  -3.961  0.00  0.00    +0.000 A 
BRANCH  17  20
ATOM     20  N   UNL     1       5.406  -1.666  -3.840  0.00  0.00    +0.000 N 
ATOM     21  C   UNL     1       6.457  -1.810  -4.824  0.00  0.00    +0.000 C 
ATOM     22  H   UNL     1       5.401  -2.355  -3.099  0.00  0.00    +0.000 HD
ENDBRANCH  17  20
BRANCH   9  24
ATOM     23  C   UNL     1       0.953   0.013   0.055  0.00  0.00    +0.000 C 
ATOM     24  C   UNL     1       2.475   0.089   0.064  0.00  0.00    +0.000 C 
ENDBRANCH   9  24
ENDBRANCH   1  12
BRANCH   7  25
ATOM     25  N   UNL     1      -0.093   7.365  -2.015  0.00  0.00    +0.000 N 
ATOM     26  C   UNL     1      -0.596   6.739  -3.147  0.00  0.00    +0.000 C 
ATOM     27  O   UNL     1      -0.083   5.724  -3.630  0.00  0.00    +0.000 OA
ATOM     28  N   UNL     1      -1.707   7.312  -3.756  0.00  0.00    +0.000 N 
ATOM     29  H   UNL     1      -0.551   8.189  -1.645  0.00  0.00    +0.000 HD
ATOM     30  H   UNL     1      -1.854   8.304  -3.640  0.00  0.00    +0.000 HD
BRANCH  28  31
ATOM     31  C   UNL     1      -2.160   6.710  -4.983  0.00  0.00    +0.000 A 
ATOM     32  C   UNL     1      -2.288   5.313  -5.065  0.00  0.00    +0.000 A 
ATOM     33  C   UNL     1      -2.404   4.662  -6.293  0.00  0.00    +0.000 A 
ATOM     34  C   UNL     1      -2.529   5.409  -7.455  0.00  0.00    +0.000 A 
ATOM     35  C   UNL     1      -2.570   6.803  -7.374  0.00  0.00    +0.000 A 
ATOM     36  C   UNL     1      -2.356   7.459  -6.145  0.00  0.00    +0.000 A 
ENDBRANCH  28  31
ENDBRANCH   7  25
TORSDOF 5
