REMARK  Name = Risdiplam
REMARK  4 active torsions:
REMARK  status: ('A' for Active; 'I' for Inactive)
REMARK    1  A    between atoms: C_1  and  C_2
REMARK    2  A    between atoms: C_6  and  C_12
REMARK    3  A    between atoms: C_8  and  C_9
REMARK    4  A    between atoms: C_18  and  N_23
REMARK                            x       y       z     vdW  Elec       q    Type
REMARK                         _______ _______ _______ _____ _____    ______ ____
ROOT
ATOM      1  C   UNL     1       9.160   1.384   0.533  0.00  0.00    +0.000 A 
ATOM      2  C   UNL     1       9.473   1.038  -0.726  0.00  0.00    +0.000 A 
ATOM      3  C   UNL     1      10.773   1.711  -0.966  0.00  0.00    +0.000 A 
ATOM      4  O   UNL     1      10.898   2.885  -1.202  0.00  0.00    +0.000 OA
ATOM      5  N   UNL     1      11.758   0.930  -0.457  0.00  0.00    +0.000 N 
ATOM      6  C   UNL     1      12.175  -0.234  -1.084  0.00  0.00    +0.000 A 
ATOM      7  C   UNL     1      13.109  -1.071  -0.591  0.00  0.00    +0.000 A 
ATOM      8  C   UNL     1      13.742  -0.543   0.641  0.00  0.00    +0.000 A 
ATOM      9  C   UNL     1      13.147   0.486   1.344  0.00  0.00    +0.000 A 
ATOM     10  C   UNL     1      11.633   0.921   0.914  0.00  0.00    +0.000 A 
ATOM     11  N   UNL     1      10.407   1.132   1.483  0.00  0.00    +0.000 NA
ENDROOT
BRANCH   1  17
ATOM     12  C   UNL     1       1.289   0.059   0.051  0.00  0.00    +0.000 C 
ATOM     13  C   UNL     1       2.810   0.175   0.059  0.00  0.00    +0.000 A 
ATOM     14  C   UNL     1       3.654   1.294   0.083  0.00  0.00    +0.000 A 
ATOM     15  N   UNL     1       4.997   0.850   0.175  0.00  0.00    +0.000 N 
ATOM     16  N   UNL     1       6.312   1.608   0.344  0.00  0.00    +0.000 NA
ATOM     17  C   UNL     1       7.428   0.859   0.483  0.00  0.00    +0.000 A 
ATOM     18  C   UNL     1       7.253  -0.639   0.285  0.00  0.00    +0.000 A 
ATOM     19  C   UNL     1       6.069  -1.281   0.141  0.00  0.00    +0.000 A 
ATOM     20  C   UNL     1       6.029  -2.787   0.053  0.00  0.00    +0.000 C 
ATOM     21  C   UNL     1       4.866  -0.529   0.119  0.00  0.00    +0.000 A 
ATOM     22  N   UNL     1       3.605  -0.949   0.058  0.00  0.00    +0.000 NA
ENDBRANCH   1  17
BRANCH   7  23
ATOM     23  N   UNL     1      13.648  -2.125  -1.380  0.00  0.00    +0.000 N 
ATOM     24  C   UNL     1      13.775  -2.006  -2.879  0.00  0.00    +0.000 C 
ATOM     25  C   UNL     1      12.627  -2.717  -3.636  0.00  0.00    +0.000 C 
ATOM     26  N   UNL     1      12.582  -4.152  -3.332  0.00  0.00    +0.000 NA
ATOM     27  C   UNL     1      12.515  -4.339  -1.853  0.00  0.00    +0.000 C 
ATOM     28  C   UNL     1      11.135  -4.563  -1.277  0.00  0.00    +0.000 C 
ATOM     29  C   UNL     1      12.083  -5.721  -1.395  0.00  0.00    +0.000 C 
ATOM     30  C   UNL     1      13.570  -3.566  -0.995  0.00  0.00    +0.000 C 
ATOM     31  H   UNL     1      13.417  -4.606  -3.703  0.00  0.00    +0.000 HD
ENDBRANCH   7  23
TORSDOF 2
