REMARK  Name = Risedronic acid
REMARK  9 active torsions:
REMARK  status: ('A' for Active; 'I' for Inactive)
REMARK    1  A    between atoms: O_1  and  C_2
REMARK    2  A    between atoms: C_2  and  C_3
REMARK    3  A    between atoms: C_2  and  P_10
REMARK    4  A    between atoms: C_2  and  P_14
REMARK    5  A    between atoms: C_3  and  C_4
REMARK    6  A    between atoms: P_10  and  O_11
REMARK    7  A    between atoms: P_10  and  O_12
REMARK    8  A    between atoms: P_14  and  O_15
REMARK    9  A    between atoms: P_14  and  O_16
REMARK                            x       y       z     vdW  Elec       q    Type
REMARK                         _______ _______ _______ _____ _____    ______ ____
ROOT
ATOM      1  C   UNL     1       2.357  -0.077  -0.005  0.00  0.00    +0.000 C 
ENDROOT
BRANCH   1   2
ATOM      2  O   UNL     1       0.901  -0.173   0.014  0.00  0.00    +0.000 OA
ATOM      3  H   UNL     1       0.550   0.702   0.266  0.00  0.00    +0.000 HD
ENDBRANCH   1   2
BRANCH   1   4
ATOM      4  P   UNL     1       2.967   0.294   1.680  0.00  0.00    +0.000 P 
ATOM      5  O   UNL     1       3.483   0.608   3.105  0.00  0.00    +0.000 OA
BRANCH   4   6
ATOM      6  O   UNL     1       2.294  -1.084   2.242  0.00  0.00    +0.000 OA
ATOM      7  H   UNL     1       2.527  -1.995   1.936  0.00  0.00    +0.000 HD
ENDBRANCH   4   6
BRANCH   4   8
ATOM      8  O   UNL     1       4.460  -0.084   1.114  0.00  0.00    +0.000 OA
ATOM      9  H   UNL     1       4.961   0.752   0.940  0.00  0.00    +0.000 HD
ENDBRANCH   4   8
ENDBRANCH   1   4
BRANCH   1  10
ATOM     10  P   UNL     1       2.974  -2.008  -0.357  0.00  0.00    +0.000 P 
ATOM     11  O   UNL     1       3.821  -2.387  -1.489  0.00  0.00    +0.000 OA
BRANCH  10  12
ATOM     12  O   UNL     1       3.625  -2.517   1.037  0.00  0.00    +0.000 OA
ATOM     13  H   UNL     1       4.346  -1.901   1.335  0.00  0.00    +0.000 HD
ENDBRANCH  10  12
BRANCH  10  14
ATOM     14  O   UNL     1       1.495  -2.677  -0.283  0.00  0.00    +0.000 OA
ATOM     15  H   UNL     1       0.795  -1.982  -0.322  0.00  0.00    +0.000 HD
ENDBRANCH  10  14
ENDBRANCH   1  10
BRANCH   1  16
ATOM     16  C   UNL     1       2.812   0.905  -1.103  0.00  0.00    +0.000 C 
BRANCH  16  17
ATOM     17  C   UNL     1       2.272   0.698  -2.498  0.00  0.00    +0.000 A 
ATOM     18  C   UNL     1       1.846   1.742  -3.303  0.00  0.00    +0.000 A 
ATOM     19  N   UNL     1       1.403   1.592  -4.579  0.00  0.00    +0.000 NA
ATOM     20  C   UNL     1       1.399   0.343  -5.101  0.00  0.00    +0.000 A 
ATOM     21  C   UNL     1       1.821  -0.756  -4.410  0.00  0.00    +0.000 A 
ATOM     22  C   UNL     1       2.255  -0.545  -3.119  0.00  0.00    +0.000 A 
ENDBRANCH  16  17
ENDBRANCH   1  16
TORSDOF 9
