REMARK  Name = Risperidone
REMARK  5 active torsions:
REMARK  status: ('A' for Active; 'I' for Inactive)
REMARK    1  A    between atoms: C_1  and  C_2
REMARK    2  A    between atoms: C_3  and  C_4
REMARK    3  A    between atoms: C_4  and  C_5
REMARK    4  A    between atoms: C_5  and  N_6
REMARK    5  A    between atoms: C_9  and  C_12
REMARK                            x       y       z     vdW  Elec       q    Type
REMARK                         _______ _______ _______ _____ _____    ______ ____
ROOT
ATOM      1  N   UNL     1       5.715  -1.690   0.158  0.00  0.00    +0.000 NA
ATOM      2  C   UNL     1       5.473  -3.090  -0.178  0.00  0.00    +0.000 C 
ATOM      3  C   UNL     1       6.755  -3.866  -0.286  0.00  0.00    +0.000 C 
ATOM      4  C   UNL     1       7.743  -3.177  -1.237  0.00  0.00    +0.000 C 
ATOM      5  C   UNL     1       8.031  -1.749  -0.740  0.00  0.00    +0.000 C 
ATOM      6  C   UNL     1       6.756  -0.946  -0.595  0.00  0.00    +0.000 C 
ENDROOT
BRANCH   4   7
ATOM      7  C   UNL     1       7.299  -3.223  -2.702  0.00  0.00    +0.000 A 
ATOM      8  N   UNL     1       8.043  -3.897  -3.597  0.00  0.00    +0.000 NA
ATOM      9  O   UNL     1       7.405  -3.752  -4.828  0.00  0.00    +0.000 OA
ATOM     10  C   UNL     1       6.281  -2.998  -4.685  0.00  0.00    +0.000 A 
ATOM     11  C   UNL     1       6.164  -2.643  -3.361  0.00  0.00    +0.000 A 
ATOM     12  C   UNL     1       5.036  -1.866  -3.051  0.00  0.00    +0.000 A 
ATOM     13  C   UNL     1       4.090  -1.441  -3.953  0.00  0.00    +0.000 A 
ATOM     14  C   UNL     1       4.261  -1.823  -5.255  0.00  0.00    +0.000 A 
ATOM     15  F   UNL     1       3.341  -1.426  -6.141  0.00  0.00    +0.000 F 
ATOM     16  C   UNL     1       5.353  -2.609  -5.663  0.00  0.00    +0.000 A 
ENDBRANCH   4   7
BRANCH   1  17
ATOM     17  C   UNL     1       4.479  -0.921   0.183  0.00  0.00    +0.000 C 
BRANCH  17  18
ATOM     18  C   UNL     1       3.115  -1.605   0.128  0.00  0.00    +0.000 C 
BRANCH  18  21
ATOM     19  C   UNL     1       3.174   1.676   0.002  0.00  0.00    +0.000 C 
ATOM     20  C   UNL     1       1.996   0.719   0.012  0.00  0.00    +0.000 A 
ATOM     21  C   UNL     1       1.973  -0.631   0.059  0.00  0.00    +0.000 A 
ATOM     22  C   UNL     1       0.632  -1.298   0.022  0.00  0.00    +0.000 A 
ATOM     23  O   UNL     1       0.551  -2.534  -0.058  0.00  0.00    +0.000 OA
ATOM     24  N   UNL     1      -0.469  -0.474   0.067  0.00  0.00    +0.000 N 
ATOM     25  C   UNL     1      -1.784  -1.096  -0.040  0.00  0.00    +0.000 C 
ATOM     26  C   UNL     1      -2.948  -0.172   0.281  0.00  0.00    +0.000 C 
ATOM     27  C   UNL     1      -2.761   1.180  -0.379  0.00  0.00    +0.000 C 
ATOM     28  C   UNL     1      -1.476   1.802   0.103  0.00  0.00    +0.000 C 
ATOM     29  C   UNL     1      -0.292   0.879   0.023  0.00  0.00    +0.000 A 
ATOM     30  N   UNL     1       0.853   1.460  -0.010  0.00  0.00    +0.000 NA
ENDBRANCH  18  21
ENDBRANCH  17  18
ENDBRANCH   1  17
TORSDOF 4
