REMARK  Name = Ritiometan
REMARK  12 active torsions:
REMARK  status: ('A' for Active; 'I' for Inactive)
REMARK    1  A    between atoms: O_1  and  C_2
REMARK    2  A    between atoms: C_2  and  C_4
REMARK    3  A    between atoms: C_4  and  S_5
REMARK    4  A    between atoms: S_5  and  C_6
REMARK    5  A    between atoms: C_6  and  S_7
REMARK    6  A    between atoms: C_6  and  S_12
REMARK    7  A    between atoms: S_7  and  C_8
REMARK    8  A    between atoms: C_8  and  C_9
REMARK    9  A    between atoms: C_9  and  O_10
REMARK   10  A    between atoms: S_12  and  C_13
REMARK   11  A    between atoms: C_13  and  C_14
REMARK   12  A    between atoms: C_14  and  O_15
REMARK                            x       y       z     vdW  Elec       q    Type
REMARK                         _______ _______ _______ _____ _____    ______ ____
ROOT
ATOM      1  C   UNL     1       5.837  -0.120   2.665  0.00  0.00    +0.000 C 
ENDROOT
BRANCH   1   2
ATOM      2  S   UNL     1       5.041  -0.105   0.993  0.00  0.00    +0.000 S 
BRANCH   2   3
ATOM      3  C   UNL     1       3.237   0.028   1.253  0.00  0.00    +0.000 C 
BRANCH   3   4
ATOM      4  C   UNL     1       2.487   0.048  -0.072  0.00  0.00    +0.000 C 
ATOM      5  O   UNL     1       3.000   0.040  -1.184  0.00  0.00    +0.000 OA
BRANCH   4   6
ATOM      6  O   UNL     1       1.137   0.007   0.066  0.00  0.00    +0.000 OA
ATOM      7  H   UNL     1       0.769  -0.044   0.968  0.00  0.00    +0.000 HD
ENDBRANCH   4   6
ENDBRANCH   3   4
ENDBRANCH   2   3
ENDBRANCH   1   2
BRANCH   1   8
ATOM      8  S   UNL     1       5.592  -1.684   3.596  0.00  0.00    +0.000 S 
BRANCH   8   9
ATOM      9  C   UNL     1       3.825  -1.642   4.029  0.00  0.00    +0.000 C 
BRANCH   9  10
ATOM     10  C   UNL     1       3.358  -2.842   4.816  0.00  0.00    +0.000 C 
ATOM     11  O   UNL     1       2.178  -3.001   5.106  0.00  0.00    +0.000 OA
BRANCH  10  12
ATOM     12  O   UNL     1       4.305  -3.755   5.105  0.00  0.00    +0.000 OA
ATOM     13  H   UNL     1       5.177  -3.494   4.736  0.00  0.00    +0.000 HD
ENDBRANCH  10  12
ENDBRANCH   9  10
ENDBRANCH   8   9
ENDBRANCH   1   8
BRANCH   1  14
ATOM     14  S   UNL     1       7.683  -0.040   2.181  0.00  0.00    +0.000 S 
BRANCH  14  15
ATOM     15  C   UNL     1       8.573  -0.069   3.781  0.00  0.00    +0.000 C 
BRANCH  15  16
ATOM     16  C   UNL     1      10.090  -0.069   3.593  0.00  0.00    +0.000 C 
ATOM     17  O   UNL     1      10.867  -0.076   4.540  0.00  0.00    +0.000 OA
BRANCH  16  18
ATOM     18  O   UNL     1      10.541  -0.065   2.318  0.00  0.00    +0.000 OA
ATOM     19  H   UNL     1       9.806  -0.067   1.666  0.00  0.00    +0.000 HD
ENDBRANCH  16  18
ENDBRANCH  15  16
ENDBRANCH  14  15
ENDBRANCH   1  14
TORSDOF 12
