REMARK  Name = Ritodrine
REMARK  10 active torsions:
REMARK  status: ('A' for Active; 'I' for Inactive)
REMARK    1  A    between atoms: C_1  and  C_2
REMARK    2  A    between atoms: C_2  and  N_3
REMARK    3  A    between atoms: C_2  and  C_13
REMARK    4  A    between atoms: N_3  and  C_4
REMARK    5  A    between atoms: C_4  and  C_5
REMARK    6  A    between atoms: C_5  and  C_6
REMARK    7  A    between atoms: C_9  and  O_10
REMARK    8  A    between atoms: C_13  and  O_14
REMARK    9  A    between atoms: C_13  and  C_15
REMARK   10  A    between atoms: C_18  and  O_19
REMARK                            x       y       z     vdW  Elec       q    Type
REMARK                         _______ _______ _______ _____ _____    ______ ____
ROOT
ATOM      1  C   UNL     1       0.999   0.047   0.044  0.00  0.00    +0.000 C 
ATOM      2  C   UNL     1       2.533   0.106   0.015  0.00  0.00    +0.000 C 
ENDROOT
BRANCH   2   3
ATOM      3  N   UNL     1       3.010   1.308  -0.712  0.00  0.00    +0.000 NA
ATOM      4  H   UNL     1       4.034   1.314  -0.693  0.00  0.00    +0.000 HD
BRANCH   3   5
ATOM      5  C   UNL     1       2.587   1.284  -2.105  0.00  0.00    +0.000 C 
BRANCH   5   6
ATOM      6  C   UNL     1       3.098   2.487  -2.898  0.00  0.00    +0.000 C 
BRANCH   6   7
ATOM      7  C   UNL     1       2.589   2.458  -4.323  0.00  0.00    +0.000 A 
ATOM      8  C   UNL     1       2.332   3.656  -4.999  0.00  0.00    +0.000 A 
ATOM      9  C   UNL     1       1.868   3.639  -6.319  0.00  0.00    +0.000 A 
ATOM     10  C   UNL     1       1.661   2.417  -6.958  0.00  0.00    +0.000 A 
ATOM     11  C   UNL     1       1.906   1.225  -6.307  0.00  0.00    +0.000 A 
ATOM     12  C   UNL     1       2.382   1.243  -5.002  0.00  0.00    +0.000 A 
BRANCH  10  13
ATOM     13  O   UNL     1       1.221   2.343  -8.246  0.00  0.00    +0.000 OA
ATOM     14  H   UNL     1       1.137   3.243  -8.595  0.00  0.00    +0.000 HD
ENDBRANCH  10  13
ENDBRANCH   6   7
ENDBRANCH   5   6
ENDBRANCH   3   5
ENDBRANCH   2   3
BRANCH   2  15
ATOM     15  C   UNL     1       3.094   0.079   1.470  0.00  0.00    +0.000 C 
BRANCH  15  16
ATOM     16  C   UNL     1       4.614   0.067   1.487  0.00  0.00    +0.000 A 
ATOM     17  C   UNL     1       5.352  -1.101   1.239  0.00  0.00    +0.000 A 
ATOM     18  C   UNL     1       6.748  -1.069   1.205  0.00  0.00    +0.000 A 
ATOM     19  C   UNL     1       7.407   0.141   1.398  0.00  0.00    +0.000 A 
ATOM     20  C   UNL     1       6.698   1.311   1.627  0.00  0.00    +0.000 A 
ATOM     21  C   UNL     1       5.306   1.276   1.675  0.00  0.00    +0.000 A 
BRANCH  19  22
ATOM     22  O   UNL     1       8.768   0.222   1.358  0.00  0.00    +0.000 OA
ATOM     23  H   UNL     1       9.127  -0.665   1.198  0.00  0.00    +0.000 HD
ENDBRANCH  19  22
ENDBRANCH  15  16
BRANCH  15  24
ATOM     24  O   UNL     1       2.598  -1.047   2.198  0.00  0.00    +0.000 OA
ATOM     25  H   UNL     1       2.828  -1.846   1.700  0.00  0.00    +0.000 HD
ENDBRANCH  15  24
ENDBRANCH   2  15
TORSDOF 9
