REMARK  Name = Rivastigmine
REMARK  10 active torsions:
REMARK  status: ('A' for Active; 'I' for Inactive)
REMARK    1  A    between atoms: C_1  and  C_2
REMARK    2  A    between atoms: C_2  and  N_3
REMARK    3  A    between atoms: N_3  and  C_4
REMARK    4  A    between atoms: C_5  and  O_7
REMARK    5  A    between atoms: O_7  and  C_8
REMARK    6  A    between atoms: C_12  and  C_14
REMARK    7  A    between atoms: C_14  and  C_15
REMARK    8  A    between atoms: C_14  and  N_16
REMARK    9  A    between atoms: N_16  and  C_17
REMARK   10  A    between atoms: N_16  and  C_18
REMARK                            x       y       z     vdW  Elec       q    Type
REMARK                         _______ _______ _______ _____ _____    ______ ____
ROOT
ATOM      1  C   UNL     1      11.594  -1.195   0.271  0.00  0.00    +0.000 A 
ATOM      2  C   UNL     1      12.600  -0.256   0.066  0.00  0.00    +0.000 A 
ATOM      3  C   UNL     1      12.588   0.931   0.800  0.00  0.00    +0.000 A 
ATOM      4  C   UNL     1      11.555   1.187   1.705  0.00  0.00    +0.000 A 
ATOM      5  C   UNL     1      10.478   0.298   1.857  0.00  0.00    +0.000 A 
ATOM      6  C   UNL     1      10.558  -0.919   1.158  0.00  0.00    +0.000 A 
ENDROOT
BRANCH   5   7
ATOM      7  C   UNL     1       9.289   0.619   2.781  0.00  0.00    +0.000 C 
ATOM      8  C   UNL     1       8.408  -0.646   2.961  0.00  0.00    +0.000 C 
BRANCH   7   9
ATOM      9  N   UNL     1       8.443   1.761   2.310  0.00  0.00    +0.000 NA
ATOM     10  C   UNL     1       7.327   2.016   3.230  0.00  0.00    +0.000 C 
ATOM     11  C   UNL     1       9.184   3.020   2.178  0.00  0.00    +0.000 C 
ENDBRANCH   7   9
ENDBRANCH   5   7
BRANCH   1  12
ATOM     12  O   UNL     1      11.700  -2.461  -0.354  0.00  0.00    +0.000 OA
BRANCH  12  15
ATOM     13  N   UNL     1      10.766  -4.418  -1.253  0.00  0.00    +0.000 N 
ATOM     14  C   UNL     1      12.086  -5.026  -1.183  0.00  0.00    +0.000 C 
ATOM     15  C   UNL     1      10.543  -3.115  -0.808  0.00  0.00    +0.000 C 
ATOM     16  O   UNL     1       9.422  -2.602  -0.833  0.00  0.00    +0.000 OA
BRANCH  13  18
ATOM     17  C   UNL     1       9.904  -6.531  -2.349  0.00  0.00    +0.000 C 
ATOM     18  C   UNL     1       9.620  -5.138  -1.816  0.00  0.00    +0.000 C 
ENDBRANCH  13  18
ENDBRANCH  12  15
ENDBRANCH   1  12
TORSDOF 5
