REMARK  Name = Rivaroxaban
REMARK  5 active torsions:
REMARK  status: ('A' for Active; 'I' for Inactive)
REMARK    1  A    between atoms: C_5  and  C_7
REMARK    2  A    between atoms: N_9  and  C_10
REMARK    3  A    between atoms: C_10  and  C_11
REMARK    4  A    between atoms: N_13  and  C_17
REMARK    5  A    between atoms: C_20  and  N_23
REMARK                            x       y       z     vdW  Elec       q    Type
REMARK                         _______ _______ _______ _____ _____    ______ ____
ROOT
ATOM      1  C   UNL     1      -6.930   1.147   0.065  0.00  0.00    +0.000 C 
ATOM      2  C   UNL     1      -7.674   1.081  -1.278  0.00  0.00    +0.000 C 
ATOM      3  N   UNL     1      -7.624   2.447  -1.743  0.00  0.00    +0.000 N 
ATOM      4  C   UNL     1      -7.174   3.282  -0.757  0.00  0.00    +0.000 C 
ATOM      5  O   UNL     1      -7.194   4.509  -0.753  0.00  0.00    +0.000 OA
ATOM      6  O   UNL     1      -6.688   2.556   0.277  0.00  0.00    +0.000 OA
ENDROOT
BRANCH   3   7
ATOM      7  C   UNL     1      -7.747   2.853  -3.089  0.00  0.00    +0.000 A 
ATOM      8  C   UNL     1      -8.911   2.579  -3.800  0.00  0.00    +0.000 A 
ATOM      9  C   UNL     1      -9.050   3.005  -5.129  0.00  0.00    +0.000 A 
ATOM     10  C   UNL     1      -8.036   3.725  -5.766  0.00  0.00    +0.000 A 
ATOM     11  C   UNL     1      -6.850   3.977  -5.066  0.00  0.00    +0.000 A 
ATOM     12  C   UNL     1      -6.719   3.571  -3.726  0.00  0.00    +0.000 A 
BRANCH  10  13
ATOM     13  N   UNL     1      -8.217   4.173  -7.108  0.00  0.00    +0.000 N 
ATOM     14  C   UNL     1      -9.366   5.051  -7.402  0.00  0.00    +0.000 C 
ATOM     15  C   UNL     1      -9.556   5.323  -8.895  0.00  0.00    +0.000 C 
ATOM     16  O   UNL     1      -8.307   5.689  -9.476  0.00  0.00    +0.000 OA
ATOM     17  C   UNL     1      -7.439   4.566  -9.434  0.00  0.00    +0.000 C 
ATOM     18  C   UNL     1      -7.248   3.888  -8.070  0.00  0.00    +0.000 C 
ATOM     19  O   UNL     1      -6.341   3.070  -7.910  0.00  0.00    +0.000 OA
ENDBRANCH  10  13
ENDBRANCH   3   7
BRANCH   1  20
ATOM     20  C   UNL     1      -7.515   0.688   1.414  0.00  0.00    +0.000 C 
BRANCH  20  23
ATOM     21  C   UNL     1      -7.678  -1.189   3.022  0.00  0.00    +0.000 C 
ATOM     22  O   UNL     1      -7.986  -0.413   3.924  0.00  0.00    +0.000 OA
ATOM     23  N   UNL     1      -7.437  -0.726   1.725  0.00  0.00    +0.000 N 
ATOM     24  H   UNL     1      -7.074  -1.361   1.035  0.00  0.00    +0.000 HD
BRANCH  21  29
ATOM     25 CL   UNL     1      -7.613  -6.288   5.160  0.00  0.00    +0.000 Cl
ATOM     26  C   UNL     1      -7.493  -4.908   4.143  0.00  0.00    +0.000 A 
ATOM     27  C   UNL     1      -7.112  -4.913   2.829  0.00  0.00    +0.000 A 
ATOM     28  C   UNL     1      -7.162  -3.601   2.276  0.00  0.00    +0.000 A 
ATOM     29  C   UNL     1      -7.532  -2.634   3.198  0.00  0.00    +0.000 A 
ATOM     30  S   UNL     1      -7.861  -3.363   4.729  0.00  0.00    +0.000 S 
ENDBRANCH  21  29
ENDBRANCH  20  23
ENDBRANCH   1  20
TORSDOF 5
