REMARK  Name = Rizatriptan
REMARK  7 active torsions:
REMARK  status: ('A' for Active; 'I' for Inactive)
REMARK    1  A    between atoms: C_1  and  N_2
REMARK    2  A    between atoms: N_2  and  C_3
REMARK    3  A    between atoms: N_2  and  C_4
REMARK    4  A    between atoms: C_4  and  C_5
REMARK    5  A    between atoms: C_5  and  C_6
REMARK    6  A    between atoms: C_12  and  C_13
REMARK    7  A    between atoms: C_13  and  N_14
REMARK                            x       y       z     vdW  Elec       q    Type
REMARK                         _______ _______ _______ _____ _____    ______ ____
ROOT
ATOM      1  C   UNL     1       4.872  -2.553   1.096  0.00  0.00    +0.000 A 
ATOM      2  C   UNL     1       5.813  -2.774   2.081  0.00  0.00    +0.000 A 
ATOM      3  N   UNL     1       5.853  -4.120   2.337  0.00  0.00    +0.000 N 
ATOM      4  C   UNL     1       4.999  -4.781   1.487  0.00  0.00    +0.000 A 
ATOM      5  C   UNL     1       4.393  -3.828   0.681  0.00  0.00    +0.000 A 
ATOM      6  C   UNL     1       3.480  -4.245  -0.307  0.00  0.00    +0.000 A 
ATOM      7  C   UNL     1       3.175  -5.597  -0.464  0.00  0.00    +0.000 A 
ATOM      8  C   UNL     1       3.843  -6.522   0.350  0.00  0.00    +0.000 A 
ATOM      9  C   UNL     1       4.738  -6.141   1.354  0.00  0.00    +0.000 A 
ATOM     10  H   UNL     1       6.436  -4.567   3.026  0.00  0.00    +0.000 HD
ENDROOT
BRANCH   1  11
ATOM     11  C   UNL     1       4.420  -1.240   0.554  0.00  0.00    +0.000 C 
BRANCH  11  12
ATOM     12  C   UNL     1       2.884  -1.108   0.589  0.00  0.00    +0.000 C 
BRANCH  12  14
ATOM     13  C   UNL     1       0.909   0.103   0.002  0.00  0.00    +0.000 C 
ATOM     14  N   UNL     1       2.375   0.152   0.032  0.00  0.00    +0.000 NA
ATOM     15  C   UNL     1       2.827   1.280   0.840  0.00  0.00    +0.000 C 
ENDBRANCH  12  14
ENDBRANCH  11  12
ENDBRANCH   1  11
BRANCH   7  16
ATOM     16  C   UNL     1       2.145  -5.949  -1.515  0.00  0.00    +0.000 C 
BRANCH  16  17
ATOM     17  N   UNL     1       1.878  -7.370  -1.603  0.00  0.00    +0.000 N 
ATOM     18  C   UNL     1       1.406  -8.182  -0.615  0.00  0.00    +0.000 A 
ATOM     19  N   UNL     1       1.481  -9.434  -1.010  0.00  0.00    +0.000 NA
ATOM     20  C   UNL     1       1.974  -9.324  -2.278  0.00  0.00    +0.000 A 
ATOM     21  N   UNL     1       2.225  -8.079  -2.692  0.00  0.00    +0.000 NA
ENDBRANCH  16  17
ENDBRANCH   7  16
TORSDOF 5
