REMARK  Name = Rocuronium
REMARK  10 active torsions:
REMARK  status: ('A' for Active; 'I' for Inactive)
REMARK    1  A    between atoms: C_4  and  N_35
REMARK    2  A    between atoms: C_5  and  O_6
REMARK    3  A    between atoms: O_6  and  C_7
REMARK    4  A    between atoms: C_7  and  C_8
REMARK    5  A    between atoms: C_10  and  C_11
REMARK    6  A    between atoms: C_23  and  O_24
REMARK    7  A    between atoms: C_25  and  N_29
REMARK    8  A    between atoms: C_27  and  C_28
REMARK    9  A    between atoms: N_35  and  C_36
REMARK   10  A    between atoms: C_36  and  C_37
REMARK                            x       y       z     vdW  Elec       q    Type
REMARK                         _______ _______ _______ _____ _____    ______ ____
ROOT
ATOM      1  C   UNL     1       1.846  -0.006  -0.170  0.00  0.00    +0.000 C 
ATOM      2  C   UNL     1       2.312   0.096  -1.489  0.00  0.00    +0.000 C 
ATOM      3  C   UNL     1       3.586  -0.130  -0.799  0.00  0.00    +0.000 C 
ATOM      4  C   UNL     1       2.898  -0.734   1.148  0.00  0.00    +0.000 C 
ATOM      5  C   UNL     1       2.748  -1.555   0.070  0.00  0.00    +0.000 C 
ATOM      6  C   UNL     1       2.023  -2.768  -0.199  0.00  0.00    +0.000 C 
ATOM      7  C   UNL     1       4.454  -1.602   0.614  0.00  0.00    +0.000 C 
ATOM      8  C   UNL     1       4.925  -0.024   1.423  0.00  0.00    +0.000 C 
ATOM      9  C   UNL     1       4.197   1.418   0.810  0.00  0.00    +0.000 C 
ATOM     10  C   UNL     1       2.543   1.436   0.672  0.00  0.00    +0.000 C 
ATOM     11  C   UNL     1       2.063   2.671  -0.039  0.00  0.00    +0.000 C 
ATOM     12  C   UNL     1       2.636   3.906   0.602  0.00  0.00    +0.000 C 
ATOM     13  C   UNL     1       4.170   3.929   0.708  0.00  0.00    +0.000 C 
ATOM     14  C   UNL     1       4.783   4.169  -0.659  0.00  0.00    +0.000 C 
ATOM     15  C   UNL     1       6.268   4.616  -0.586  0.00  0.00    +0.000 C 
ATOM     16  C   UNL     1       6.971   3.374  -0.957  0.00  0.00    +0.000 C 
ATOM     17  C   UNL     1       6.461   2.587   0.728  0.00  0.00    +0.000 C 
ATOM     18  C   UNL     1       4.821   2.674   1.333  0.00  0.00    +0.000 C 
ATOM     19  C   UNL     1       4.379   2.632   2.842  0.00  0.00    +0.000 C 
ENDROOT
BRANCH  16  20
ATOM     20  N   UNL     1       8.439   3.827  -1.418  0.00  0.00    +0.000 NA
ATOM     21  C   UNL     1       9.217   2.593  -1.472  0.00  0.00    +0.000 C 
ATOM     22  C   UNL     1       8.886   1.869  -2.756  0.00  0.00    +0.000 C 
ATOM     23  O   UNL     1       9.308   2.493  -3.962  0.00  0.00    +0.000 OA
ATOM     24  C   UNL     1       8.687   3.778  -4.103  0.00  0.00    +0.000 C 
ATOM     25  C   UNL     1       8.813   4.566  -2.766  0.00  0.00    +0.000 C 
ENDBRANCH  16  20
BRANCH   3  26
ATOM     26  N   UNL     1       4.436  -0.174  -2.547  0.00  0.00    +0.000 N 
ATOM     27  C   UNL     1       5.483   1.126  -2.903  0.00  0.00    +0.000 C 
ATOM     28  C   UNL     1       6.338   0.714  -4.137  0.00  0.00    +0.000 C 
ATOM     29  C   UNL     1       6.519  -0.766  -3.947  0.00  0.00    +0.000 C 
ATOM     30  C   UNL     1       5.404  -1.312  -2.980  0.00  0.00    +0.000 C 
BRANCH  26  31
ATOM     31  C   UNL     1       3.378   0.065  -3.769  0.00  0.00    +0.000 C 
BRANCH  31  32
ATOM     32  C   UNL     1       3.749   0.078  -5.213  0.00  0.00    +0.000 C 
ATOM     33  C   UNL     1       2.863   0.285  -6.191  0.00  0.00    +0.000 C 
ENDBRANCH  31  32
ENDBRANCH  26  31
ENDBRANCH   3  26
BRANCH  15  34
ATOM     34  O   UNL     1       6.409   5.670   0.320  0.00  0.00    +0.000 OA
ATOM     35  H   UNL     1       6.464   6.434  -0.247  0.00  0.00    +0.000 HD
ENDBRANCH  15  34
BRANCH   4  36
ATOM     36  O   UNL     1       2.924  -1.966   2.370  0.00  0.00    +0.000 OA
BRANCH  36  37
ATOM     37  C   UNL     1       2.433  -2.370   3.647  0.00  0.00    +0.000 C 
ATOM     38  C   UNL     1       1.507  -1.546   4.565  0.00  0.00    +0.000 C 
ATOM     39  O   UNL     1       2.781  -3.464   4.123  0.00  0.00    +0.000 OA
ENDBRANCH  36  37
ENDBRANCH   4  36
TORSDOF 7
