REMARK  Name = Rofecoxib
REMARK  4 active torsions:
REMARK  status: ('A' for Active; 'I' for Inactive)
REMARK    1  A    between atoms: C_1  and  S_2
REMARK    2  A    between atoms: S_2  and  C_5
REMARK    3  A    between atoms: C_8  and  C_11
REMARK    4  A    between atoms: C_12  and  C_17
REMARK                            x       y       z     vdW  Elec       q    Type
REMARK                         _______ _______ _______ _____ _____    ______ ____
ROOT
ATOM      1  C   UNL     1       4.770   1.339  -5.522  0.00  0.00    +0.000 C 
ATOM      2  C   UNL     1       4.275   0.749  -6.620  0.00  0.00    +0.000 C 
ATOM      3  C   UNL     1       5.039   1.277  -7.764  0.00  0.00    +0.000 C 
ATOM      4  O   UNL     1       4.922   0.934  -8.923  0.00  0.00    +0.000 OA
ATOM      5  O   UNL     1       5.920   2.214  -7.309  0.00  0.00    +0.000 OA
ATOM      6  C   UNL     1       5.794   2.339  -5.889  0.00  0.00    +0.000 C 
ENDROOT
BRANCH   1  10
ATOM      7  C   UNL     1       3.270   0.401  -1.622  0.00  0.00    +0.000 A 
ATOM      8  C   UNL     1       3.828  -0.598  -2.419  0.00  0.00    +0.000 A 
ATOM      9  C   UNL     1       4.408  -0.256  -3.647  0.00  0.00    +0.000 A 
ATOM     10  C   UNL     1       4.355   1.060  -4.138  0.00  0.00    +0.000 A 
ATOM     11  C   UNL     1       3.801   2.053  -3.322  0.00  0.00    +0.000 A 
ATOM     12  C   UNL     1       3.269   1.728  -2.064  0.00  0.00    +0.000 A 
BRANCH   7  14
ATOM     13  C   UNL     1       0.966   0.046  -0.010  0.00  0.00    +0.000 C 
ATOM     14  S   UNL     1       2.738   0.030   0.041  0.00  0.00    +0.000 S 
ATOM     15  O   UNL     1       3.168   1.139   0.871  0.00  0.00    +0.000 OA
ATOM     16  O   UNL     1       3.158  -1.325   0.344  0.00  0.00    +0.000 OA
ENDBRANCH   7  14
ENDBRANCH   1  10
BRANCH   2  17
ATOM     17  C   UNL     1       3.241  -0.279  -6.676  0.00  0.00    +0.000 A 
ATOM     18  C   UNL     1       1.971  -0.030  -6.134  0.00  0.00    +0.000 A 
ATOM     19  C   UNL     1       1.056  -1.070  -5.978  0.00  0.00    +0.000 A 
ATOM     20  C   UNL     1       1.365  -2.343  -6.452  0.00  0.00    +0.000 A 
ATOM     21  C   UNL     1       2.607  -2.588  -7.037  0.00  0.00    +0.000 A 
ATOM     22  C   UNL     1       3.546  -1.561  -7.143  0.00  0.00    +0.000 A 
ENDBRANCH   2  17
TORSDOF 3
