REMARK  Name = Roflumilast
REMARK  7 active torsions:
REMARK  status: ('A' for Active; 'I' for Inactive)
REMARK    1  A    between atoms: C_2  and  O_4
REMARK    2  A    between atoms: O_4  and  C_5
REMARK    3  A    between atoms: C_6  and  O_7
REMARK    4  A    between atoms: O_7  and  C_8
REMARK    5  A    between atoms: C_8  and  C_9
REMARK    6  A    between atoms: C_13  and  C_16
REMARK    7  A    between atoms: N_18  and  C_19
REMARK                            x       y       z     vdW  Elec       q    Type
REMARK                         _______ _______ _______ _____ _____    ______ ____
ROOT
ATOM      1  C   UNL     1       4.154   0.945  -1.231  0.00  0.00    +0.000 A 
ATOM      2  C   UNL     1       4.677   2.191  -1.642  0.00  0.00    +0.000 A 
ATOM      3  C   UNL     1       6.037   2.241  -2.023  0.00  0.00    +0.000 A 
ATOM      4  C   UNL     1       6.902   1.122  -1.895  0.00  0.00    +0.000 A 
ATOM      5  C   UNL     1       6.363  -0.085  -1.456  0.00  0.00    +0.000 A 
ATOM      6  C   UNL     1       5.002  -0.171  -1.146  0.00  0.00    +0.000 A 
ENDROOT
BRANCH   4   7
ATOM      7  C   UNL     1       8.367   1.293  -2.190  0.00  0.00    +0.000 C 
ATOM      8  O   UNL     1       8.726   2.357  -2.700  0.00  0.00    +0.000 OA
ATOM      9  N   UNL     1       9.250   0.244  -1.913  0.00  0.00    +0.000 N 
ATOM     10  H   UNL     1       8.890  -0.702  -1.875  0.00  0.00    +0.000 HD
BRANCH   9  11
ATOM     11  C   UNL     1      10.668   0.360  -2.112  0.00  0.00    +0.000 A 
ATOM     12  C   UNL     1      11.411   1.460  -1.649  0.00  0.00    +0.000 A 
ATOM     13 CL   UNL     1      10.782   2.682  -0.600  0.00  0.00    +0.000 Cl
ATOM     14  C   UNL     1      12.781   1.500  -1.904  0.00  0.00    +0.000 A 
ATOM     15  N   UNL     1      13.466   0.546  -2.575  0.00  0.00    +0.000 NA
ATOM     16  C   UNL     1      12.745  -0.521  -2.985  0.00  0.00    +0.000 A 
ATOM     17  C   UNL     1      11.377  -0.674  -2.754  0.00  0.00    +0.000 A 
ATOM     18 CL   UNL     1      10.608  -2.114  -3.313  0.00  0.00    +0.000 Cl
ENDBRANCH   9  11
ENDBRANCH   4   7
BRANCH   1  19
ATOM     19  O   UNL     1       2.801   0.764  -1.096  0.00  0.00    +0.000 OA
BRANCH  19  21
ATOM     20  F   UNL     1       1.004   0.135   0.069  0.00  0.00    +0.000 F 
ATOM     21  C   UNL     1       2.361   0.084   0.073  0.00  0.00    +0.000 C 
ATOM     22  F   UNL     1       2.685  -1.229   0.006  0.00  0.00    +0.000 F 
ENDBRANCH  19  21
ENDBRANCH   1  19
BRANCH   2  23
ATOM     23  O   UNL     1       4.018   3.424  -1.689  0.00  0.00    +0.000 OA
BRANCH  23  24
ATOM     24  C   UNL     1       2.715   3.430  -1.093  0.00  0.00    +0.000 C 
BRANCH  24  25
ATOM     25  C   UNL     1       1.981   4.729  -0.932  0.00  0.00    +0.000 C 
ATOM     26  C   UNL     1       2.321   6.204  -0.908  0.00  0.00    +0.000 C 
ATOM     27  C   UNL     1       1.770   5.590  -2.159  0.00  0.00    +0.000 C 
ENDBRANCH  24  25
ENDBRANCH  23  24
ENDBRANCH   2  23
TORSDOF 7
