REMARK  Name = Rolapitant
REMARK  8 active torsions:
REMARK  status: ('A' for Active; 'I' for Inactive)
REMARK    1  A    between atoms: C_1  and  C_2
REMARK    2  A    between atoms: C_2  and  O_3
REMARK    3  A    between atoms: C_2  and  C_22
REMARK    4  A    between atoms: O_3  and  C_4
REMARK    5  A    between atoms: C_4  and  C_5
REMARK    6  A    between atoms: C_5  and  C_16
REMARK    7  A    between atoms: C_24  and  C_32
REMARK    8  A    between atoms: C_26  and  C_28
REMARK                            x       y       z     vdW  Elec       q    Type
REMARK                         _______ _______ _______ _____ _____    ______ ____
ROOT
ATOM      1  C   UNL     1       3.101   3.671   0.624  0.00  0.00    +0.000 C 
ATOM      2  C   UNL     1       4.461   3.779  -0.123  0.00  0.00    +0.000 C 
ATOM      3  C   UNL     1       4.247   4.140  -1.617  0.00  0.00    +0.000 C 
ATOM      4  C   UNL     1       3.366   5.382  -1.771  0.00  0.00    +0.000 C 
ATOM      5  C   UNL     1       4.153   6.609  -1.291  0.00  0.00    +0.000 C 
ATOM      6  C   UNL     1       3.936   7.675  -2.349  0.00  0.00    +0.000 C 
ATOM      7  C   UNL     1       3.090   7.014  -3.395  0.00  0.00    +0.000 C 
ATOM      8  O   UNL     1       2.538   7.566  -4.339  0.00  0.00    +0.000 OA
ATOM      9  N   UNL     1       3.078   5.662  -3.152  0.00  0.00    +0.000 N 
ATOM     10  C   UNL     1       2.055   5.239  -0.965  0.00  0.00    +0.000 C 
ATOM     11  N   UNL     1       2.361   4.934   0.415  0.00  0.00    +0.000 NA
ATOM     12  H   UNL     1       2.566   5.045  -3.773  0.00  0.00    +0.000 HD
ATOM     13  H   UNL     1       1.519   4.976   0.982  0.00  0.00    +0.000 HD
ENDROOT
BRANCH   1  14
ATOM     14  C   UNL     1       3.102   3.463   2.146  0.00  0.00    +0.000 A 
ATOM     15  C   UNL     1       4.262   3.278   2.896  0.00  0.00    +0.000 A 
ATOM     16  C   UNL     1       4.167   2.926   4.245  0.00  0.00    +0.000 A 
ATOM     17  C   UNL     1       2.926   2.864   4.884  0.00  0.00    +0.000 A 
ATOM     18  C   UNL     1       1.762   3.095   4.168  0.00  0.00    +0.000 A 
ATOM     19  C   UNL     1       1.851   3.367   2.811  0.00  0.00    +0.000 A 
ENDBRANCH   1  14
BRANCH   1  20
ATOM     20  C   UNL     1       2.454   2.394   0.010  0.00  0.00    +0.000 C 
BRANCH  20  21
ATOM     21  O   UNL     1       3.014   1.218   0.599  0.00  0.00    +0.000 OA
BRANCH  21  23
ATOM     22  C   UNL     1       1.041  -0.052  -0.006  0.00  0.00    +0.000 C 
ATOM     23  C   UNL     1       2.573   0.018  -0.021  0.00  0.00    +0.000 C 
BRANCH  23  24
ATOM     24  C   UNL     1       3.108  -1.172   0.749  0.00  0.00    +0.000 A 
ATOM     25  C   UNL     1       2.932  -2.454   0.212  0.00  0.00    +0.000 A 
ATOM     26  C   UNL     1       3.052  -3.583   1.028  0.00  0.00    +0.000 A 
ATOM     27  C   UNL     1       3.538  -3.438   2.332  0.00  0.00    +0.000 A 
ATOM     28  C   UNL     1       3.796  -2.168   2.863  0.00  0.00    +0.000 A 
ATOM     29  C   UNL     1       3.576  -1.042   2.064  0.00  0.00    +0.000 A 
BRANCH  28  30
ATOM     30  C   UNL     1       4.185  -2.025   4.309  0.00  0.00    +0.000 C 
ATOM     31  F   UNL     1       3.248  -2.562   5.141  0.00  0.00    +0.000 F 
ATOM     32  F   UNL     1       5.350  -2.665   4.595  0.00  0.00    +0.000 F 
ATOM     33  F   UNL     1       4.349  -0.737   4.713  0.00  0.00    +0.000 F 
ENDBRANCH  28  30
BRANCH  26  34
ATOM     34  C   UNL     1       2.490  -4.901   0.564  0.00  0.00    +0.000 C 
ATOM     35  F   UNL     1       1.164  -4.799   0.262  0.00  0.00    +0.000 F 
ATOM     36  F   UNL     1       3.097  -5.377  -0.552  0.00  0.00    +0.000 F 
ATOM     37  F   UNL     1       2.578  -5.883   1.503  0.00  0.00    +0.000 F 
ENDBRANCH  26  34
ENDBRANCH  23  24
ENDBRANCH  21  23
ENDBRANCH  20  21
ENDBRANCH   1  20
TORSDOF 7
