REMARK  Name = Rolitetracycline
REMARK  12 active torsions:
REMARK  status: ('A' for Active; 'I' for Inactive)
REMARK    1  A    between atoms: C_10  and  O_11
REMARK    2  A    between atoms: C_16  and  C_17
REMARK    3  A    between atoms: C_16  and  O_18
REMARK    4  A    between atoms: C_19  and  O_20
REMARK    5  A    between atoms: C_21  and  O_22
REMARK    6  A    between atoms: C_25  and  C_26
REMARK    7  A    between atoms: N_28  and  C_29
REMARK    8  A    between atoms: C_29  and  N_30
REMARK    9  A    between atoms: C_35  and  O_36
REMARK   10  A    between atoms: C_37  and  N_38
REMARK   11  A    between atoms: N_38  and  C_39
REMARK   12  A    between atoms: N_38  and  C_40
REMARK                            x       y       z     vdW  Elec       q    Type
REMARK                         _______ _______ _______ _____ _____    ______ ____
ROOT
ATOM      1  C   UNL     1       1.639   0.425   0.119  0.00  0.00    +0.000 C 
ATOM      2  C   UNL     1       2.189   0.233   1.761  0.00  0.00    +0.000 C 
ATOM      3  C   UNL     1       1.794  -0.890   2.582  0.00  0.00    +0.000 C 
ATOM      4  C   UNL     1       2.367  -2.039   1.941  0.00  0.00    +0.000 C 
ATOM      5  C   UNL     1       2.401  -3.289   2.735  0.00  0.00    +0.000 C 
ATOM      6  O   UNL     1       2.584  -4.388   2.227  0.00  0.00    +0.000 OA
ATOM      7  C   UNL     1       2.261  -3.087   4.213  0.00  0.00    +0.000 A 
ATOM      8  C   UNL     1       2.090  -4.137   5.096  0.00  0.00    +0.000 A 
ATOM      9  C   UNL     1       1.936  -3.873   6.463  0.00  0.00    +0.000 A 
ATOM     10  C   UNL     1       1.970  -2.579   6.968  0.00  0.00    +0.000 A 
ATOM     11  C   UNL     1       2.189  -1.545   6.113  0.00  0.00    +0.000 A 
ATOM     12  C   UNL     1       2.310  -1.788   4.751  0.00  0.00    +0.000 A 
ATOM     13  C   UNL     1       2.498  -0.600   3.897  0.00  0.00    +0.000 C 
ATOM     14  C   UNL     1       1.787   0.651   4.460  0.00  0.00    +0.000 C 
ATOM     15  C   UNL     1       2.915  -1.758   0.761  0.00  0.00    +0.000 C 
ATOM     16  C   UNL     1       2.929  -0.087   0.050  0.00  0.00    +0.000 C 
ATOM     17  C   UNL     1       2.870   1.857   0.674  0.00  0.00    +0.000 C 
ATOM     18  O   UNL     1       2.041   2.482   1.475  0.00  0.00    +0.000 OA
ATOM     19  C   UNL     1       3.237   3.139  -0.035  0.00  0.00    +0.000 C 
ATOM     20  C   UNL     1       2.253   2.748  -0.932  0.00  0.00    +0.000 C 
ATOM     21  C   UNL     1       2.451   1.310  -1.346  0.00  0.00    +0.000 C 
ENDROOT
BRANCH  19  22
ATOM     22  C   UNL     1       4.728   3.137   0.383  0.00  0.00    +0.000 C 
ATOM     23  O   UNL     1       5.280   2.077   0.701  0.00  0.00    +0.000 OA
ATOM     24  N   UNL     1       5.489   4.282   0.447  0.00  0.00    +0.000 N 
ATOM     25  H   UNL     1       5.101   5.172   0.716  0.00  0.00    +0.000 HD
BRANCH  24  26
ATOM     26  C   UNL     1       6.921   4.047   0.454  0.00  0.00    +0.000 C 
BRANCH  26  27
ATOM     27  N   UNL     1       7.730   5.165   0.866  0.00  0.00    +0.000 NA
ATOM     28  C   UNL     1       7.491   5.719   2.188  0.00  0.00    +0.000 C 
ATOM     29  C   UNL     1       6.721   6.992   1.901  0.00  0.00    +0.000 C 
ATOM     30  C   UNL     1       7.375   7.495   0.624  0.00  0.00    +0.000 C 
ATOM     31  C   UNL     1       7.837   6.242  -0.105  0.00  0.00    +0.000 C 
ENDBRANCH  26  27
ENDBRANCH  24  26
ENDBRANCH  19  22
BRANCH  21  32
ATOM     32  N   UNL     1       4.102   1.250  -1.481  0.00  0.00    +0.000 NA
ATOM     33  C   UNL     1       4.976   0.063  -1.416  0.00  0.00    +0.000 C 
ATOM     34  C   UNL     1       4.707   2.278  -2.282  0.00  0.00    +0.000 C 
ENDBRANCH  21  32
BRANCH   8  35
ATOM     35  O   UNL     1       2.047  -5.444   4.708  0.00  0.00    +0.000 OA
ATOM     36  H   UNL     1       2.203  -5.492   3.741  0.00  0.00    +0.000 HD
ENDBRANCH   8  35
BRANCH  13  37
ATOM     37  O   UNL     1       3.922  -0.418   3.792  0.00  0.00    +0.000 OA
ATOM     38  H   UNL     1       4.328  -1.188   3.342  0.00  0.00    +0.000 HD
ENDBRANCH  13  37
BRANCH  15  39
ATOM     39  O   UNL     1       3.289  -2.861  -0.046  0.00  0.00    +0.000 OA
ATOM     40  H   UNL     1       3.047  -3.697   0.439  0.00  0.00    +0.000 HD
ENDBRANCH  15  39
BRANCH  16  41
ATOM     41  O   UNL     1       2.703  -0.856  -1.237  0.00  0.00    +0.000 OA
ATOM     42  H   UNL     1       3.375  -1.573  -1.249  0.00  0.00    +0.000 HD
ENDBRANCH  16  41
BRANCH  20  43
ATOM     43  O   UNL     1       0.865   3.033  -0.792  0.00  0.00    +0.000 OA
ATOM     44  H   UNL     1       0.683   3.447   0.080  0.00  0.00    +0.000 HD
ENDBRANCH  20  43
TORSDOF 9
