REMARK  Name = Romidepsin
REMARK  7 active torsions:
REMARK  status: ('A' for Active; 'I' for Inactive)
REMARK    1  A    between atoms: C_1  and  C_2
REMARK    2  A    between atoms: C_20  and  C_21
REMARK    3  A    between atoms: C_21  and  C_22
REMARK    4  A    between atoms: C_21  and  C_23
REMARK    5  A    between atoms: C_30  and  C_34
REMARK    6  A    between atoms: C_34  and  C_35
REMARK    7  A    between atoms: C_34  and  C_36
REMARK                            x       y       z     vdW  Elec       q    Type
REMARK                         _______ _______ _______ _____ _____    ______ ____
ROOT
ATOM      1  C   UNL     1       1.330   0.009   0.793  0.00  0.00    +0.000 C 
ATOM      2  C   UNL     1       2.797  -0.167   0.555  0.00  0.00    +0.000 C 
ATOM      3  C   UNL     1       3.390   0.786  -0.177  0.00  0.00    +0.000 C 
ATOM      4  N   UNL     1       4.352   0.437  -1.104  0.00  0.00    +0.000 N 
ATOM      5  C   UNL     1       4.295   0.501  -2.462  0.00  0.00    +0.000 C 
ATOM      6  O   UNL     1       5.291   1.064  -2.922  0.00  0.00    +0.000 OA
ATOM      7  C   UNL     1       3.353  -0.260  -3.468  0.00  0.00    +0.000 C 
ATOM      8  C   UNL     1       1.885  -1.079  -2.762  0.00  0.00    +0.000 C 
ATOM      9  S   UNL     1       0.105  -0.680  -2.314  0.00  0.00    +0.000 S 
ATOM     10  S   UNL     1      -0.287   1.244  -2.724  0.00  0.00    +0.000 S 
ATOM     11  C   UNL     1       0.600   2.320  -1.494  0.00  0.00    +0.000 C 
ATOM     12  C   UNL     1       1.837   2.811  -2.151  0.00  0.00    +0.000 C 
ATOM     13  C   UNL     1       2.294   4.297  -2.103  0.00  0.00    +0.000 C 
ATOM     14  C   UNL     1       3.567   4.823  -2.249  0.00  0.00    +0.000 C 
ATOM     15  C   UNL     1       4.073   6.279  -2.429  0.00  0.00    +0.000 C 
ATOM     16  C   UNL     1       5.357   6.522  -3.623  0.00  0.00    +0.000 C 
ATOM     17  C   UNL     1       5.380   6.128  -5.330  0.00  0.00    +0.000 C 
ATOM     18  O   UNL     1       5.096   7.052  -6.115  0.00  0.00    +0.000 OA
ATOM     19  N   UNL     1       5.642   4.793  -5.906  0.00  0.00    +0.000 N 
ATOM     20  C   UNL     1       4.639   3.407  -5.879  0.00  0.00    +0.000 C 
ATOM     21  C   UNL     1       4.945   1.594  -5.432  0.00  0.00    +0.000 C 
ATOM     22  O   UNL     1       6.183   1.292  -5.288  0.00  0.00    +0.000 OA
ATOM     23  N   UNL     1       3.809   0.415  -5.087  0.00  0.00    +0.000 N 
ATOM     24  O   UNL     1       4.342   6.672  -1.032  0.00  0.00    +0.000 OA
ATOM     25  C   UNL     1       3.488   6.016  -0.138  0.00  0.00    +0.000 C 
ATOM     26  O   UNL     1       2.291   6.308  -0.068  0.00  0.00    +0.000 OA
ATOM     27  C   UNL     1       4.110   4.617   0.465  0.00  0.00    +0.000 C 
ATOM     28  N   UNL     1       3.491   3.309   0.005  0.00  0.00    +0.000 N 
ATOM     29  C   UNL     1       3.453   2.110   0.663  0.00  0.00    +0.000 C 
ATOM     30  O   UNL     1       3.397   2.081   1.889  0.00  0.00    +0.000 OA
ATOM     31  H   UNL     1       4.933  -0.359  -0.880  0.00  0.00    +0.000 HD
ATOM     32  H   UNL     1       6.619   4.552  -5.839  0.00  0.00    +0.000 HD
ATOM     33  H   UNL     1       3.008   0.457  -5.714  0.00  0.00    +0.000 HD
ATOM     34  H   UNL     1       2.529   3.524  -0.181  0.00  0.00    +0.000 HD
ENDROOT
BRANCH  20  35
ATOM     35  C   UNL     1       4.014   3.947  -4.688  0.00  0.00    +0.000 C 
ATOM     36  C   UNL     1       3.198   2.895  -4.215  0.00  0.00    +0.000 C 
ATOM     37  C   UNL     1       2.997   5.151  -4.800  0.00  0.00    +0.000 C 
ENDBRANCH  20  35
BRANCH  27  38
ATOM     38  C   UNL     1       5.665   4.506   0.356  0.00  0.00    +0.000 C 
ATOM     39  C   UNL     1       6.393   4.816  -0.959  0.00  0.00    +0.000 C 
ATOM     40  C   UNL     1       6.134   3.080   0.630  0.00  0.00    +0.000 C 
ENDBRANCH  27  38
TORSDOF 2
