REMARK  Name = Ropivacaine
REMARK  7 active torsions:
REMARK  status: ('A' for Active; 'I' for Inactive)
REMARK    1  A    between atoms: C_1  and  C_2
REMARK    2  A    between atoms: C_2  and  C_3
REMARK    3  A    between atoms: C_3  and  N_4
REMARK    4  A    between atoms: C_9  and  C_10
REMARK    5  A    between atoms: N_12  and  C_13
REMARK    6  A    between atoms: C_14  and  C_15
REMARK    7  A    between atoms: C_19  and  C_20
REMARK                            x       y       z     vdW  Elec       q    Type
REMARK                         _______ _______ _______ _____ _____    ______ ____
ROOT
ATOM      1  C   UNL     1       4.498  -2.730  -2.252  0.00  0.00    +0.000 C 
ATOM      2  O   UNL     1       3.965  -3.102  -1.195  0.00  0.00    +0.000 OA
ATOM      3  N   UNL     1       4.742  -3.633  -3.274  0.00  0.00    +0.000 N 
ATOM      4  H   UNL     1       5.515  -3.454  -3.901  0.00  0.00    +0.000 HD
ENDROOT
BRANCH   3   5
ATOM      5  C   UNL     1       4.291  -4.974  -3.115  0.00  0.00    +0.000 A 
ATOM      6  C   UNL     1       2.945  -5.221  -2.741  0.00  0.00    +0.000 A 
ATOM      7  C   UNL     1       1.894  -4.145  -2.593  0.00  0.00    +0.000 C 
ATOM      8  C   UNL     1       2.524  -6.536  -2.498  0.00  0.00    +0.000 A 
ATOM      9  C   UNL     1       3.402  -7.600  -2.651  0.00  0.00    +0.000 A 
ATOM     10  C   UNL     1       4.715  -7.363  -3.047  0.00  0.00    +0.000 A 
ATOM     11  C   UNL     1       5.179  -6.057  -3.293  0.00  0.00    +0.000 A 
ATOM     12  C   UNL     1       6.631  -5.885  -3.646  0.00  0.00    +0.000 C 
ENDBRANCH   3   5
BRANCH   1  18
ATOM     13  N   UNL     1       4.427  -0.364  -1.360  0.00  0.00    +0.000 NA
ATOM     14  C   UNL     1       4.996  -0.778  -0.061  0.00  0.00    +0.000 C 
ATOM     15  C   UNL     1       6.514  -0.791  -0.073  0.00  0.00    +0.000 C 
ATOM     16  C   UNL     1       7.080  -1.590  -1.236  0.00  0.00    +0.000 C 
ATOM     17  C   UNL     1       6.446  -1.149  -2.553  0.00  0.00    +0.000 C 
ATOM     18  C   UNL     1       4.918  -1.247  -2.472  0.00  0.00    +0.000 C 
BRANCH  13  19
ATOM     19  C   UNL     1       2.948  -0.293  -1.351  0.00  0.00    +0.000 C 
BRANCH  19  21
ATOM     20  C   UNL     1       0.832   0.077  -0.017  0.00  0.00    +0.000 C 
ATOM     21  C   UNL     1       2.344   0.087   0.005  0.00  0.00    +0.000 C 
ENDBRANCH  19  21
ENDBRANCH  13  19
ENDBRANCH   1  18
TORSDOF 4
