REMARK  Name = Ropinirole
REMARK  9 active torsions:
REMARK  status: ('A' for Active; 'I' for Inactive)
REMARK    1  A    between atoms: C_1  and  C_2
REMARK    2  A    between atoms: C_2  and  C_3
REMARK    3  A    between atoms: C_3  and  N_4
REMARK    4  A    between atoms: N_4  and  C_5
REMARK    5  A    between atoms: N_4  and  C_8
REMARK    6  A    between atoms: C_5  and  C_6
REMARK    7  A    between atoms: C_6  and  C_7
REMARK    8  A    between atoms: C_8  and  C_9
REMARK    9  A    between atoms: C_9  and  C_10
REMARK                            x       y       z     vdW  Elec       q    Type
REMARK                         _______ _______ _______ _____ _____    ______ ____
ROOT
ATOM      1  C   UNL     1       6.998  -2.900  -3.264  0.00  0.00    +0.000 A 
ATOM      2  C   UNL     1       6.724  -4.257  -3.136  0.00  0.00    +0.000 A 
ATOM      3  C   UNL     1       6.064  -5.019  -2.019  0.00  0.00    +0.000 C 
ATOM      4  C   UNL     1       6.073  -6.453  -2.545  0.00  0.00    +0.000 C 
ATOM      5  O   UNL     1       5.636  -7.430  -1.978  0.00  0.00    +0.000 OA
ATOM      6  N   UNL     1       6.642  -6.419  -3.815  0.00  0.00    +0.000 N 
ATOM      7  C   UNL     1       7.038  -5.138  -4.163  0.00  0.00    +0.000 A 
ATOM      8  C   UNL     1       7.639  -4.725  -5.332  0.00  0.00    +0.000 A 
ATOM      9  C   UNL     1       7.958  -3.370  -5.454  0.00  0.00    +0.000 A 
ATOM     10  C   UNL     1       7.650  -2.465  -4.426  0.00  0.00    +0.000 A 
ATOM     11  H   UNL     1       6.735  -7.242  -4.388  0.00  0.00    +0.000 HD
ENDROOT
BRANCH   1  12
ATOM     12  C   UNL     1       6.570  -1.925  -2.210  0.00  0.00    +0.000 C 
BRANCH  12  13
ATOM     13  C   UNL     1       5.034  -1.843  -2.136  0.00  0.00    +0.000 C 
BRANCH  13  14
ATOM     14  N   UNL     1       4.516  -0.974  -1.055  0.00  0.00    +0.000 NA
BRANCH  14  15
ATOM     15  C   UNL     1       3.030  -0.997  -1.146  0.00  0.00    +0.000 C 
BRANCH  15  17
ATOM     16  C   UNL     1       0.840  -0.015  -0.231  0.00  0.00    +0.000 C 
ATOM     17  C   UNL     1       2.340   0.000  -0.224  0.00  0.00    +0.000 C 
ENDBRANCH  15  17
ENDBRANCH  14  15
BRANCH  14  18
ATOM     18  C   UNL     1       5.034  -1.452   0.252  0.00  0.00    +0.000 C 
BRANCH  18  19
ATOM     19  C   UNL     1       4.738  -0.540   1.432  0.00  0.00    +0.000 C 
ATOM     20  C   UNL     1       5.266  -1.017   2.753  0.00  0.00    +0.000 C 
ENDBRANCH  18  19
ENDBRANCH  14  18
ENDBRANCH  13  14
ENDBRANCH  12  13
ENDBRANCH   1  12
TORSDOF 7
