REMARK  Name = Rosiglitazone
REMARK  8 active torsions:
REMARK  status: ('A' for Active; 'I' for Inactive)
REMARK    1  A    between atoms: C_1  and  N_2
REMARK    2  A    between atoms: N_2  and  C_3
REMARK    3  A    between atoms: N_2  and  C_20
REMARK    4  A    between atoms: C_3  and  C_4
REMARK    5  A    between atoms: C_4  and  O_5
REMARK    6  A    between atoms: O_5  and  C_6
REMARK    7  A    between atoms: C_9  and  C_10
REMARK    8  A    between atoms: C_10  and  C_11
REMARK                            x       y       z     vdW  Elec       q    Type
REMARK                         _______ _______ _______ _____ _____    ______ ____
ROOT
ATOM      1  C   UNL     1       2.405   4.610  -1.057  0.00  0.00    +0.000 A 
ATOM      2  C   UNL     1       2.804   5.523  -2.037  0.00  0.00    +0.000 A 
ATOM      3  C   UNL     1       2.175   6.779  -2.175  0.00  0.00    +0.000 A 
ATOM      4  C   UNL     1       1.088   7.107  -1.368  0.00  0.00    +0.000 A 
ATOM      5  C   UNL     1       0.757   6.166  -0.400  0.00  0.00    +0.000 A 
ATOM      6  C   UNL     1       1.363   4.942  -0.232  0.00  0.00    +0.000 A 
ENDROOT
BRANCH   1   7
ATOM      7  O   UNL     1       3.137   3.471  -0.891  0.00  0.00    +0.000 OA
BRANCH   7   8
ATOM      8  C   UNL     1       2.348   2.346  -0.495  0.00  0.00    +0.000 C 
BRANCH   8   9
ATOM      9  C   UNL     1       3.243   1.146  -0.191  0.00  0.00    +0.000 C 
BRANCH   9  11
ATOM     10  C   UNL     1       1.043  -0.155   0.080  0.00  0.00    +0.000 C 
ATOM     11  N   UNL     1       2.493  -0.098   0.000  0.00  0.00    +0.000 N 
BRANCH  11  12
ATOM     12  C   UNL     1       3.218  -1.245   0.305  0.00  0.00    +0.000 A 
ATOM     13  C   UNL     1       2.838  -2.470  -0.250  0.00  0.00    +0.000 A 
ATOM     14  C   UNL     1       3.557  -3.630   0.027  0.00  0.00    +0.000 A 
ATOM     15  C   UNL     1       4.643  -3.559   0.880  0.00  0.00    +0.000 A 
ATOM     16  C   UNL     1       4.968  -2.318   1.397  0.00  0.00    +0.000 A 
ATOM     17  N   UNL     1       4.298  -1.171   1.113  0.00  0.00    +0.000 NA
ENDBRANCH  11  12
ENDBRANCH   9  11
ENDBRANCH   8   9
ENDBRANCH   7   8
ENDBRANCH   1   7
BRANCH   4  18
ATOM     18  C   UNL     1       0.282   8.383  -1.559  0.00  0.00    +0.000 C 
BRANCH  18  19
ATOM     19  C   UNL     1      -0.980   8.605  -0.677  0.00  0.00    +0.000 C 
ATOM     20  S   UNL     1      -0.670   8.810   1.125  0.00  0.00    +0.000 S 
ATOM     21  C   UNL     1      -1.521   7.329   1.522  0.00  0.00    +0.000 C 
ATOM     22  O   UNL     1      -1.321   6.681   2.545  0.00  0.00    +0.000 OA
ATOM     23  N   UNL     1      -2.233   6.895   0.451  0.00  0.00    +0.000 N 
ATOM     24  C   UNL     1      -1.956   7.441  -0.776  0.00  0.00    +0.000 C 
ATOM     25  O   UNL     1      -2.397   6.985  -1.822  0.00  0.00    +0.000 OA
ATOM     26  H   UNL     1      -2.621   5.961   0.472  0.00  0.00    +0.000 HD
ENDBRANCH  18  19
ENDBRANCH   4  18
TORSDOF 7
