REMARK  Name = Rosoxacin
REMARK  5 active torsions:
REMARK  status: ('A' for Active; 'I' for Inactive)
REMARK    1  A    between atoms: C_1  and  C_2
REMARK    2  A    between atoms: C_2  and  N_3
REMARK    3  A    between atoms: C_5  and  C_6
REMARK    4  A    between atoms: C_6  and  O_7
REMARK    5  A    between atoms: C_14  and  C_17
REMARK                            x       y       z     vdW  Elec       q    Type
REMARK                         _______ _______ _______ _____ _____    ______ ____
ROOT
ATOM      1  N   UNL     1       2.989  -0.523   1.278  0.00  0.00    +0.000 N 
ATOM      2  C   UNL     1       3.000  -1.853   1.684  0.00  0.00    +0.000 A 
ATOM      3  C   UNL     1       3.335  -2.312   2.899  0.00  0.00    +0.000 A 
ATOM      4  C   UNL     1       3.742  -1.317   3.903  0.00  0.00    +0.000 A 
ATOM      5  O   UNL     1       4.071  -1.673   5.035  0.00  0.00    +0.000 OA
ATOM      6  C   UNL     1       3.790   0.098   3.495  0.00  0.00    +0.000 A 
ATOM      7  C   UNL     1       3.392   0.466   2.195  0.00  0.00    +0.000 A 
ATOM      8  C   UNL     1       3.454   1.824   1.887  0.00  0.00    +0.000 A 
ATOM      9  C   UNL     1       4.097   2.735   2.734  0.00  0.00    +0.000 A 
ATOM     10  C   UNL     1       4.609   2.295   3.957  0.00  0.00    +0.000 A 
ATOM     11  C   UNL     1       4.320   1.017   4.399  0.00  0.00    +0.000 A 
ENDROOT
BRANCH   9  12
ATOM     12  C   UNL     1       4.139   4.148   2.385  0.00  0.00    +0.000 A 
ATOM     13  C   UNL     1       5.347   4.831   2.261  0.00  0.00    +0.000 A 
ATOM     14  C   UNL     1       5.304   6.204   2.115  0.00  0.00    +0.000 A 
ATOM     15  N   UNL     1       4.162   6.907   1.955  0.00  0.00    +0.000 NA
ATOM     16  C   UNL     1       3.009   6.210   1.969  0.00  0.00    +0.000 A 
ATOM     17  C   UNL     1       2.943   4.856   2.224  0.00  0.00    +0.000 A 
ENDBRANCH   9  12
BRANCH   1  19
ATOM     18  C   UNL     1       0.999  -0.088  -0.070  0.00  0.00    +0.000 C 
ATOM     19  C   UNL     1       2.518  -0.135  -0.063  0.00  0.00    +0.000 C 
ENDBRANCH   1  19
BRANCH   3  20
ATOM     20  C   UNL     1       3.291  -3.762   3.174  0.00  0.00    +0.000 C 
ATOM     21  O   UNL     1       2.945  -4.586   2.350  0.00  0.00    +0.000 OA
BRANCH  20  22
ATOM     22  O   UNL     1       3.668  -4.105   4.429  0.00  0.00    +0.000 OA
ATOM     23  H   UNL     1       3.928  -3.341   5.001  0.00  0.00    +0.000 HD
ENDBRANCH  20  22
ENDBRANCH   3  20
TORSDOF 4
