REMARK  Name = Rosuvastatin
REMARK  16 active torsions:
REMARK  status: ('A' for Active; 'I' for Inactive)
REMARK    1  A    between atoms: C_1  and  C_2
REMARK    2  A    between atoms: C_2  and  C_3
REMARK    3  A    between atoms: C_2  and  C_4
REMARK    4  A    between atoms: C_8  and  C_9
REMARK    5  A    between atoms: C_16  and  C_17
REMARK    6  A    between atoms: C_18  and  C_19
REMARK    7  A    between atoms: C_19  and  O_20
REMARK    8  A    between atoms: C_19  and  C_21
REMARK    9  A    between atoms: C_21  and  C_22
REMARK   10  A    between atoms: C_22  and  O_23
REMARK   11  A    between atoms: C_22  and  C_24
REMARK   12  A    between atoms: C_24  and  C_25
REMARK   13  A    between atoms: C_25  and  O_27
REMARK   14  A    between atoms: N_28  and  C_29
REMARK   15  A    between atoms: N_28  and  S_30
REMARK   16  A    between atoms: S_30  and  C_31
REMARK                            x       y       z     vdW  Elec       q    Type
REMARK                         _______ _______ _______ _____ _____    ______ ____
ROOT
ATOM      1  C   UNL     1       2.943   1.425   0.010  0.00  0.00    +0.000 A 
ATOM      2  N   UNL     1       4.265   1.755   0.107  0.00  0.00    +0.000 NA
ATOM      3  C   UNL     1       4.633   3.034   0.155  0.00  0.00    +0.000 A 
ATOM      4  N   UNL     1       3.779   4.035   0.009  0.00  0.00    +0.000 NA
ATOM      5  C   UNL     1       2.451   3.727  -0.043  0.00  0.00    +0.000 A 
ATOM      6  C   UNL     1       1.913   2.413  -0.063  0.00  0.00    +0.000 A 
ATOM      7  N   UNL     1       6.025   3.276   0.044  0.00  0.00    +0.000 N 
ATOM      8  C   UNL     1       6.980   2.169   0.248  0.00  0.00    +0.000 C 
ENDROOT
BRANCH   5   9
ATOM      9  C   UNL     1       1.594   4.933  -0.096  0.00  0.00    +0.000 A 
ATOM     10  C   UNL     1       0.603   5.155   0.887  0.00  0.00    +0.000 A 
ATOM     11  C   UNL     1      -0.349   6.160   0.733  0.00  0.00    +0.000 A 
ATOM     12  C   UNL     1      -0.261   7.012  -0.356  0.00  0.00    +0.000 A 
ATOM     13  F   UNL     1      -1.156   7.998  -0.491  0.00  0.00    +0.000 F 
ATOM     14  C   UNL     1       0.739   6.857  -1.311  0.00  0.00    +0.000 A 
ATOM     15  C   UNL     1       1.658   5.811  -1.190  0.00  0.00    +0.000 A 
ENDBRANCH   5   9
BRANCH   7  16
ATOM     16  S   UNL     1       6.600   4.832   0.308  0.00  0.00    +0.000 S 
ATOM     17  C   UNL     1       6.128   5.669  -1.198  0.00  0.00    +0.000 C 
ATOM     18  O   UNL     1       5.931   5.449   1.429  0.00  0.00    +0.000 OA
ATOM     19  O   UNL     1       8.054   4.772   0.285  0.00  0.00    +0.000 OA
ENDBRANCH   7  16
BRANCH   1  21
ATOM     20  C   UNL     1       1.480  -0.575   0.175  0.00  0.00    +0.000 C 
ATOM     21  C   UNL     1       2.855  -0.104   0.019  0.00  0.00    +0.000 C 
ATOM     22  C   UNL     1       3.260  -0.749  -1.314  0.00  0.00    +0.000 C 
ENDBRANCH   1  21
BRANCH   6  23
ATOM     23  C   UNL     1       0.372   2.333  -0.164  0.00  0.00    +0.000 C 
ATOM     24  C   UNL     1      -0.489   1.307  -0.175  0.00  0.00    +0.000 C 
BRANCH  24  25
ATOM     25  C   UNL     1      -1.875   0.844  -0.279  0.00  0.00    +0.000 C 
BRANCH  25  26
ATOM     26  O   UNL     1      -2.268   1.296  -1.555  0.00  0.00    +0.000 OA
ATOM     27  H   UNL     1      -1.671   0.876  -2.198  0.00  0.00    +0.000 HD
ENDBRANCH  25  26
BRANCH  25  28
ATOM     28  C   UNL     1      -1.880  -0.768  -0.232  0.00  0.00    +0.000 C 
BRANCH  28  29
ATOM     29  C   UNL     1      -3.301  -1.262  -0.334  0.00  0.00    +0.000 C 
BRANCH  29  30
ATOM     30  O   UNL     1      -3.824  -0.799  -1.573  0.00  0.00    +0.000 OA
ATOM     31  H   UNL     1      -3.236  -1.053  -2.300  0.00  0.00    +0.000 HD
ENDBRANCH  29  30
BRANCH  29  32
ATOM     32  C   UNL     1      -3.471  -2.776  -0.292  0.00  0.00    +0.000 C 
BRANCH  32  33
ATOM     33  C   UNL     1      -4.972  -3.045  -0.328  0.00  0.00    +0.000 C 
ATOM     34  O   UNL     1      -5.837  -2.209  -0.306  0.00  0.00    +0.000 OA
BRANCH  33  35
ATOM     35  O   UNL     1      -5.275  -4.366  -0.363  0.00  0.00    +0.000 OA
ATOM     36  H   UNL     1      -4.522  -4.976  -0.344  0.00  0.00    +0.000 HD
ENDBRANCH  33  35
ENDBRANCH  32  33
ENDBRANCH  29  32
ENDBRANCH  28  29
ENDBRANCH  25  28
ENDBRANCH  24  25
ENDBRANCH   6  23
TORSDOF 12
