REMARK  Name = Rotigotine
REMARK  8 active torsions:
REMARK  status: ('A' for Active; 'I' for Inactive)
REMARK    1  A    between atoms: C_1  and  C_2
REMARK    2  A    between atoms: C_2  and  C_3
REMARK    3  A    between atoms: C_3  and  N_4
REMARK    4  A    between atoms: N_4  and  C_5
REMARK    5  A    between atoms: N_4  and  C_12
REMARK    6  A    between atoms: C_5  and  C_6
REMARK    7  A    between atoms: C_6  and  C_7
REMARK    8  A    between atoms: C_16  and  O_17
REMARK                            x       y       z     vdW  Elec       q    Type
REMARK                         _______ _______ _______ _____ _____    ______ ____
ROOT
ATOM      1  C   UNL     1       4.993   1.732  -2.339  0.00  0.00    +0.000 C 
ATOM      2  C   UNL     1       6.460   1.509  -2.746  0.00  0.00    +0.000 C 
ATOM      3  C   UNL     1       6.738   2.201  -4.078  0.00  0.00    +0.000 C 
ATOM      4  C   UNL     1       6.271   3.639  -4.098  0.00  0.00    +0.000 A 
ATOM      5  C   UNL     1       6.679   4.516  -5.107  0.00  0.00    +0.000 A 
ATOM      6  C   UNL     1       6.232   5.834  -5.136  0.00  0.00    +0.000 A 
ATOM      7  C   UNL     1       5.349   6.300  -4.165  0.00  0.00    +0.000 A 
ATOM      8  C   UNL     1       4.911   5.443  -3.164  0.00  0.00    +0.000 A 
ATOM      9  C   UNL     1       5.357   4.115  -3.130  0.00  0.00    +0.000 A 
ATOM     10  C   UNL     1       4.854   3.233  -2.018  0.00  0.00    +0.000 C 
ENDROOT
BRANCH   5  11
ATOM     11  O   UNL     1       7.527   4.146  -6.114  0.00  0.00    +0.000 OA
ATOM     12  H   UNL     1       7.713   3.197  -6.041  0.00  0.00    +0.000 HD
ENDBRANCH   5  11
BRANCH   1  13
ATOM     13  N   UNL     1       4.077   1.218  -3.391  0.00  0.00    +0.000 NA
BRANCH  13  14
ATOM     14  C   UNL     1       2.708   1.768  -3.370  0.00  0.00    +0.000 C 
BRANCH  14  16
ATOM     15  C   UNL     1       0.553   2.055  -1.987  0.00  0.00    +0.000 C 
ATOM     16  C   UNL     1       1.935   1.480  -2.082  0.00  0.00    +0.000 C 
ENDBRANCH  14  16
ENDBRANCH  13  14
BRANCH  13  17
ATOM     17  C   UNL     1       4.125  -0.253  -3.531  0.00  0.00    +0.000 C 
BRANCH  17  18
ATOM     18  C   UNL     1       3.667  -1.021  -2.290  0.00  0.00    +0.000 C 
BRANCH  18  19
ATOM     19  C   UNL     1       3.699  -2.483  -2.384  0.00  0.00    +0.000 A 
ATOM     20  C   UNL     1       4.724  -3.288  -2.825  0.00  0.00    +0.000 A 
ATOM     21  C   UNL     1       4.343  -4.651  -2.763  0.00  0.00    +0.000 A 
ATOM     22  C   UNL     1       3.074  -4.835  -2.272  0.00  0.00    +0.000 A 
ATOM     23  S   UNL     1       2.326  -3.367  -1.863  0.00  0.00    +0.000 S 
ENDBRANCH  18  19
ENDBRANCH  17  18
ENDBRANCH  13  17
ENDBRANCH   1  13
TORSDOF 7
