REMARK  Name = Roxadustat
REMARK  8 active torsions:
REMARK  status: ('A' for Active; 'I' for Inactive)
REMARK    1  A    between atoms: C_1  and  C_2
REMARK    2  A    between atoms: C_4  and  C_5
REMARK    3  A    between atoms: N_7  and  CA_8
REMARK    4  A    between atoms: CA_8  and  C_9
REMARK    5  A    between atoms: C_9  and  O_10
REMARK    6  A    between atoms: C_12  and  O_13
REMARK    7  A    between atoms: C_17  and  O_18
REMARK    8  A    between atoms: O_18  and  C_19
REMARK                            x       y       z     vdW  Elec       q    Type
REMARK                         _______ _______ _______ _____ _____    ______ ____
ROOT
ATOM      1  C   UNK A   1       0.972  -0.019  -0.052  0.00  0.00    +0.000 C 
ATOM      2  C   UNK A   1       2.481  -0.005  -0.022  0.00  0.00    +0.000 A 
ATOM      3  N   UNK A   1       3.115  -1.216  -0.102  0.00  0.00    +0.000 NA
ATOM      4  C   UNK A   1       4.485  -1.188  -0.097  0.00  0.00    +0.000 A 
ATOM      5  C   UNK A   1       5.244  -0.027  -0.021  0.00  0.00    +0.000 A 
ATOM      6  C   UNK A   1       4.572   1.195   0.024  0.00  0.00    +0.000 A 
ATOM      7  C   UNK A   1       3.160   1.237   0.038  0.00  0.00    +0.000 A 
ATOM      8  C   UNK A   1       2.525   2.508   0.082  0.00  0.00    +0.000 A 
ATOM      9  C   UNK A   1       3.259   3.686  -0.073  0.00  0.00    +0.000 A 
ATOM     10  C   UNK A   1       4.644   3.598  -0.185  0.00  0.00    +0.000 A 
ATOM     11  C   UNK A   1       5.294   2.388  -0.010  0.00  0.00    +0.000 A 
ENDROOT
BRANCH   4  12
ATOM     12  C   UNK A   1       5.194  -2.504  -0.206  0.00  0.00    +0.000 C 
ATOM     13  O   UNK A   1       6.428  -2.555  -0.221  0.00  0.00    +0.000 OA
ATOM     14  N   GLY A   2       4.395  -3.617  -0.286  0.00  0.00    +0.000 N 
ATOM     15  H   GLY A   2       3.404  -3.410  -0.268  0.00  0.00    +0.000 HD
BRANCH  14  16
ATOM     16  CA  GLY A   2       4.989  -4.946  -0.367  0.00  0.00    +0.000 C 
BRANCH  16  17
ATOM     17  C   GLY A   2       4.055  -6.149  -0.440  0.00  0.00    +0.000 C 
ATOM     18  OXT GLY A   2       4.467  -7.306  -0.509  0.00  0.00    +0.000 OA
BRANCH  17  19
ATOM     19  O   GLY A   2       2.733  -5.886  -0.423  0.00  0.00    +0.000 OA
ATOM     20  H   GLY A   2       2.492  -4.948  -0.367  0.00  0.00    +0.000 HD
ENDBRANCH  17  19
ENDBRANCH  16  17
ENDBRANCH  14  16
ENDBRANCH   4  12
BRANCH   5  21
ATOM     21  O   UNK A   1       6.619  -0.016  -0.041  0.00  0.00    +0.000 OA
ATOM     22  H   UNK A   1       6.950  -0.940  -0.117  0.00  0.00    +0.000 HD
ENDBRANCH   5  21
BRANCH   9  23
ATOM     23  O   UNK A   1       2.541   4.871  -0.080  0.00  0.00    +0.000 OA
BRANCH  23  24
ATOM     24  C   UNK A   1       3.253   6.038  -0.250  0.00  0.00    +0.000 A 
ATOM     25  C   UNK A   1       3.935   6.281  -1.445  0.00  0.00    +0.000 A 
ATOM     26  C   UNK A   1       4.839   7.337  -1.519  0.00  0.00    +0.000 A 
ATOM     27  C   UNK A   1       4.920   8.252  -0.471  0.00  0.00    +0.000 A 
ATOM     28  C   UNK A   1       4.102   8.105   0.651  0.00  0.00    +0.000 A 
ATOM     29  C   UNK A   1       3.305   6.965   0.789  0.00  0.00    +0.000 A 
ENDBRANCH  23  24
ENDBRANCH   9  23
TORSDOF 7
