REMARK  Name = Rucaparib
REMARK  4 active torsions:
REMARK  status: ('A' for Active; 'I' for Inactive)
REMARK    1  A    between atoms: C_1  and  N_2
REMARK    2  A    between atoms: N_2  and  C_3
REMARK    3  A    between atoms: C_3  and  C_4
REMARK    4  A    between atoms: C_7  and  C_10
REMARK                            x       y       z     vdW  Elec       q    Type
REMARK                         _______ _______ _______ _____ _____    ______ ____
ROOT
ATOM      1  C   UNL     1      10.629   0.354  -0.512  0.00  0.00    +0.000 A 
ATOM      2  C   UNL     1      11.681  -0.368   0.683  0.00  0.00    +0.000 A 
ATOM      3  C   UNL     1      10.760   0.653   1.056  0.00  0.00    +0.000 C 
ATOM      4  C   UNL     1      11.168   0.887   2.391  0.00  0.00    +0.000 C 
ATOM      5  N   UNL     1      12.449   1.515   2.405  0.00  0.00    +0.000 N 
ATOM      6  C   UNL     1      13.157   0.871   3.376  0.00  0.00    +0.000 C 
ATOM      7  O   UNL     1      12.801   0.399   4.432  0.00  0.00    +0.000 OA
ATOM      8  C   UNL     1      14.218   0.276   2.675  0.00  0.00    +0.000 A 
ATOM      9  C   UNL     1      13.360  -0.511   1.441  0.00  0.00    +0.000 A 
ATOM     10  C   UNL     1      14.019   0.127   0.412  0.00  0.00    +0.000 A 
ATOM     11  N   UNL     1      12.431   0.570  -0.547  0.00  0.00    +0.000 N 
ATOM     12  C   UNL     1      15.774   0.549   0.891  0.00  0.00    +0.000 A 
ATOM     13  C   UNL     1      16.465   1.337   1.999  0.00  0.00    +0.000 A 
ATOM     14  F   UNL     1      17.480   2.252   1.820  0.00  0.00    +0.000 F 
ATOM     15  C   UNL     1      15.355   1.493   2.693  0.00  0.00    +0.000 A 
ATOM     16  H   UNL     1      12.916   1.508   1.478  0.00  0.00    +0.000 HD
ATOM     17  H   UNL     1      12.419   0.957  -1.424  0.00  0.00    +0.000 HD
ENDROOT
BRANCH   1  21
ATOM     18  C   UNL     1       4.566   1.061  -0.904  0.00  0.00    +0.000 A 
ATOM     19  C   UNL     1       5.490   1.207  -1.943  0.00  0.00    +0.000 A 
ATOM     20  C   UNL     1       7.277   0.978  -1.835  0.00  0.00    +0.000 A 
ATOM     21  C   UNL     1       8.558   0.697  -0.700  0.00  0.00    +0.000 A 
ATOM     22  C   UNL     1       7.170   0.665   0.286  0.00  0.00    +0.000 A 
ATOM     23  C   UNL     1       5.395   0.841   0.203  0.00  0.00    +0.000 A 
BRANCH  18  24
ATOM     24  C   UNL     1       2.993   1.075  -0.913  0.00  0.00    +0.000 C 
BRANCH  24  26
ATOM     25  C   UNL     1       0.964   0.077   0.036  0.00  0.00    +0.000 C 
ATOM     26  N   UNL     1       2.426   0.080   0.035  0.00  0.00    +0.000 NA
ATOM     27  H   UNL     1       2.757  -0.847  -0.231  0.00  0.00    +0.000 HD
ENDBRANCH  24  26
ENDBRANCH  18  24
ENDBRANCH   1  21
TORSDOF 3
