REMARK  Name = Rufinamide
REMARK  3 active torsions:
REMARK  status: ('A' for Active; 'I' for Inactive)
REMARK    1  A    between atoms: C_2  and  C_4
REMARK    2  A    between atoms: N_6  and  C_7
REMARK    3  A    between atoms: C_7  and  C_8
REMARK                            x       y       z     vdW  Elec       q    Type
REMARK                         _______ _______ _______ _____ _____    ______ ____
ROOT
ATOM      1  C   UNL     1       3.285  -0.764   0.959  0.00  0.00    +0.000 A 
ATOM      2  C   UNL     1       2.953  -2.051   1.324  0.00  0.00    +0.000 A 
ATOM      3  N   UNL     1       4.015  -2.492   2.065  0.00  0.00    +0.000 N 
ATOM      4  N   UNL     1       4.909  -1.502   2.242  0.00  0.00    +0.000 NA
ATOM      5  N   UNL     1       4.486  -0.448   1.548  0.00  0.00    +0.000 NA
ENDROOT
BRANCH   1   7
ATOM      6  N   UNL     1       1.193  -0.016   0.038  0.00  0.00    +0.000 N 
ATOM      7  C   UNL     1       2.560   0.104   0.046  0.00  0.00    +0.000 C 
ATOM      8  O   UNL     1       3.102   0.909  -0.711  0.00  0.00    +0.000 OA
ATOM      9  H   UNL     1       0.687   0.629  -0.554  0.00  0.00    +0.000 HD
ATOM     10  H   UNL     1       0.678  -0.555   0.719  0.00  0.00    +0.000 HD
ENDBRANCH   1   7
BRANCH   3  11
ATOM     11  C   UNL     1       4.287  -3.825   2.603  0.00  0.00    +0.000 C 
BRANCH  11  12
ATOM     12  C   UNL     1       3.234  -4.829   2.219  0.00  0.00    +0.000 A 
ATOM     13  C   UNL     1       3.009  -5.136   0.873  0.00  0.00    +0.000 A 
ATOM     14  F   UNL     1       3.772  -4.566  -0.070  0.00  0.00    +0.000 F 
ATOM     15  C   UNL     1       1.944  -5.933   0.472  0.00  0.00    +0.000 A 
ATOM     16  C   UNL     1       1.107  -6.493   1.433  0.00  0.00    +0.000 A 
ATOM     17  C   UNL     1       1.339  -6.238   2.785  0.00  0.00    +0.000 A 
ATOM     18  C   UNL     1       2.395  -5.411   3.167  0.00  0.00    +0.000 A 
ATOM     19  F   UNL     1       2.580  -5.160   4.470  0.00  0.00    +0.000 F 
ENDBRANCH  11  12
ENDBRANCH   3  11
TORSDOF 3
