REMARK  Name = Rupatadine
REMARK  3 active torsions:
REMARK  status: ('A' for Active; 'I' for Inactive)
REMARK    1  A    between atoms: C_1  and  C_2
REMARK    2  A    between atoms: C_4  and  C_5
REMARK    3  A    between atoms: C_5  and  N_6
REMARK                            x       y       z     vdW  Elec       q    Type
REMARK                         _______ _______ _______ _____ _____    ______ ____
ROOT
ATOM      1  N   UNL     1      -1.255   3.689   0.099  0.00  0.00    +0.000 NA
ATOM      2  C   UNL     1      -0.367   2.861   0.838  0.00  0.00    +0.000 C 
ATOM      3  C   UNL     1       0.223   1.982  -0.441  0.00  0.00    +0.000 C 
ATOM      4  C   UNL     1       1.327   2.597  -1.064  0.00  0.00    +0.000 C 
ATOM      5  C   UNL     1       0.496   3.589  -1.952  0.00  0.00    +0.000 C 
ATOM      6  C   UNL     1      -0.342   4.421  -0.932  0.00  0.00    +0.000 C 
ATOM      7  C   UNL     1       2.936   2.236  -0.681  0.00  0.00    +0.000 C 
ATOM      8  C   UNL     1       4.703   2.562  -0.952  0.00  0.00    +0.000 A 
ATOM      9  C   UNL     1       5.054   3.922  -0.732  0.00  0.00    +0.000 A 
ATOM     10  C   UNL     1       5.410   4.685  -1.847  0.00  0.00    +0.000 A 
ATOM     11  C   UNL     1       5.980   4.040  -2.929  0.00  0.00    +0.000 A 
ATOM     12 CL   UNL     1       6.623   4.993  -4.200  0.00  0.00    +0.000 Cl
ATOM     13  C   UNL     1       6.047   2.641  -2.988  0.00  0.00    +0.000 A 
ATOM     14  C   UNL     1       5.322   1.855  -2.083  0.00  0.00    +0.000 A 
ATOM     15  C   UNL     1       4.864   0.493  -2.707  0.00  0.00    +0.000 C 
ATOM     16  C   UNL     1       3.603  -0.015  -2.120  0.00  0.00    +0.000 C 
ATOM     17  C   UNL     1       2.849   1.277  -1.817  0.00  0.00    +0.000 A 
ATOM     18  C   UNL     1       2.661   1.209  -0.101  0.00  0.00    +0.000 A 
ATOM     19  N   UNL     1       2.385   2.267   1.066  0.00  0.00    +0.000 NA
ATOM     20  C   UNL     1       2.376   3.844   0.521  0.00  0.00    +0.000 A 
ATOM     21  C   UNL     1       2.681   4.286  -1.193  0.00  0.00    +0.000 A 
ATOM     22  C   UNL     1       2.919   2.994  -2.515  0.00  0.00    +0.000 A 
ENDROOT
BRANCH   1  23
ATOM     23  C   UNL     1      -2.194   2.382  -0.102  0.00  0.00    +0.000 C 
BRANCH  23  27
ATOM     24  C   UNL     1       2.083  -1.086   0.739  0.00  0.00    +0.000 C 
ATOM     25  C   UNL     1       0.535  -0.844   0.705  0.00  0.00    +0.000 A 
ATOM     26  C   UNL     1      -0.322   0.238   1.129  0.00  0.00    +0.000 A 
ATOM     27  C   UNL     1      -1.625   0.683   0.404  0.00  0.00    +0.000 A 
ATOM     28  C   UNL     1      -2.221  -0.408  -0.130  0.00  0.00    +0.000 A 
ATOM     29  N   UNL     1      -1.561  -1.621  -0.272  0.00  0.00    +0.000 NA
ATOM     30  C   UNL     1      -0.214  -1.759   0.036  0.00  0.00    +0.000 A 
ENDBRANCH  23  27
ENDBRANCH   1  23
TORSDOF 2
