REMARK  Name = Rutin
REMARK  17 active torsions:
REMARK  status: ('A' for Active; 'I' for Inactive)
REMARK    1  A    between atoms: C_1  and  C_2
REMARK    2  A    between atoms: C_4  and  O_5
REMARK    3  A    between atoms: O_5  and  C_6
REMARK    4  A    between atoms: C_6  and  C_7
REMARK    5  A    between atoms: C_9  and  O_10
REMARK    6  A    between atoms: O_10  and  C_11
REMARK    7  A    between atoms: C_12  and  C_24
REMARK    8  A    between atoms: C_16  and  O_17
REMARK    9  A    between atoms: C_19  and  O_20
REMARK   10  A    between atoms: C_26  and  O_27
REMARK   11  A    between atoms: C_28  and  O_29
REMARK   12  A    between atoms: C_32  and  O_33
REMARK   13  A    between atoms: C_34  and  O_35
REMARK   14  A    between atoms: C_36  and  O_37
REMARK   15  A    between atoms: C_38  and  O_39
REMARK   16  A    between atoms: C_40  and  O_41
REMARK   17  A    between atoms: C_42  and  O_43
REMARK                            x       y       z     vdW  Elec       q    Type
REMARK                         _______ _______ _______ _____ _____    ______ ____
ROOT
ATOM      1  C   UNL     1       0.241  11.012  -2.167  0.00  0.00    +0.000 C 
ATOM      2  O   UNL     1       1.515  10.682  -1.687  0.00  0.00    +0.000 OA
ATOM      3  C   UNL     1       2.549  11.270  -2.452  0.00  0.00    +0.000 C 
ATOM      4  C   UNL     1       2.628  10.949  -3.955  0.00  0.00    +0.000 C 
ATOM      5  C   UNL     1       1.256  11.041  -4.601  0.00  0.00    +0.000 C 
ATOM      6  C   UNL     1       0.106  10.683  -3.635  0.00  0.00    +0.000 C 
ENDROOT
BRANCH   6   7
ATOM      7  O   UNL     1      -1.124  11.070  -4.215  0.00  0.00    +0.000 OA
ATOM      8  H   UNL     1      -1.868  10.717  -3.703  0.00  0.00    +0.000 HD
ENDBRANCH   6   7
BRANCH   5   9
ATOM      9  O   UNL     1       1.260  10.471  -5.936  0.00  0.00    +0.000 OA
ATOM     10  H   UNL     1       1.452   9.522  -5.997  0.00  0.00    +0.000 HD
ENDBRANCH   5   9
BRANCH   4  11
ATOM     11  O   UNL     1       3.556  11.798  -4.646  0.00  0.00    +0.000 OA
ATOM     12  H   UNL     1       3.046  12.335  -5.276  0.00  0.00    +0.000 HD
ENDBRANCH   4  11
BRANCH   3  13
ATOM     13  O   UNL     1       3.741  10.864  -1.852  0.00  0.00    +0.000 OA
BRANCH  13  14
ATOM     14  C   UNL     1       4.115   9.538  -1.823  0.00  0.00    +0.000 A 
ATOM     15  C   UNL     1       3.478   8.359  -2.194  0.00  0.00    +0.000 A 
ATOM     16  O   UNL     1       4.117   7.139  -1.999  0.00  0.00    +0.000 OA
ATOM     17  C   UNL     1       5.408   7.078  -1.558  0.00  0.00    +0.000 A 
ATOM     18  C   UNL     1       5.941   5.794  -1.491  0.00  0.00    +0.000 A 
ATOM     19  C   UNL     1       7.259   5.621  -1.091  0.00  0.00    +0.000 A 
ATOM     20  C   UNL     1       8.048   6.711  -0.740  0.00  0.00    +0.000 A 
ATOM     21  C   UNL     1       7.508   7.994  -0.791  0.00  0.00    +0.000 A 
ATOM     22  C   UNL     1       6.179   8.181  -1.208  0.00  0.00    +0.000 A 
ATOM     23  C   UNL     1       5.534   9.475  -1.315  0.00  0.00    +0.000 A 
ATOM     24  O   UNL     1       6.147  10.533  -1.021  0.00  0.00    +0.000 OA
BRANCH  15  25
ATOM     25  C   UNL     1       2.080   7.995  -2.794  0.00  0.00    +0.000 A 
ATOM     26  C   UNL     1       1.093   7.419  -2.000  0.00  0.00    +0.000 A 
ATOM     27  C   UNL     1      -0.234   7.153  -2.489  0.00  0.00    +0.000 A 
ATOM     28  C   UNL     1      -0.699   7.648  -3.684  0.00  0.00    +0.000 A 
ATOM     29  C   UNL     1       0.284   7.961  -4.594  0.00  0.00    +0.000 A 
ATOM     30  C   UNL     1       1.682   8.042  -4.155  0.00  0.00    +0.000 A 
BRANCH  28  31
ATOM     31  O   UNL     1      -1.960   8.203  -3.827  0.00  0.00    +0.000 OA
ATOM     32  H   UNL     1      -2.345   8.396  -2.946  0.00  0.00    +0.000 HD
ENDBRANCH  28  31
BRANCH  27  33
ATOM     33  O   UNL     1      -1.143   6.544  -1.681  0.00  0.00    +0.000 OA
ATOM     34  H   UNL     1      -0.782   6.702  -0.796  0.00  0.00    +0.000 HD
ENDBRANCH  27  33
ENDBRANCH  15  25
BRANCH  21  35
ATOM     35  O   UNL     1       8.297   9.051  -0.434  0.00  0.00    +0.000 OA
ATOM     36  H   UNL     1       9.182   8.754  -0.172  0.00  0.00    +0.000 HD
ENDBRANCH  21  35
BRANCH  19  37
ATOM     37  O   UNL     1       7.828   4.385  -1.033  0.00  0.00    +0.000 OA
ATOM     38  H   UNL     1       7.180   3.719  -1.318  0.00  0.00    +0.000 HD
ENDBRANCH  19  37
ENDBRANCH  13  14
ENDBRANCH   3  13
BRANCH   1  39
ATOM     39  C   UNL     1      -0.787  10.282  -1.270  0.00  0.00    +0.000 C 
BRANCH  39  40
ATOM     40  O   UNL     1      -0.937   8.925  -0.873  0.00  0.00    +0.000 OA
BRANCH  40  44
ATOM     41  C   UNL     1      -3.933  11.740   0.165  0.00  0.00    +0.000 C 
ATOM     42  C   UNL     1      -2.810  10.787   0.478  0.00  0.00    +0.000 C 
ATOM     43  O   UNL     1      -3.147   9.521  -0.051  0.00  0.00    +0.000 OA
ATOM     44  C   UNL     1      -2.082   8.584  -0.026  0.00  0.00    +0.000 C 
ATOM     45  C   UNL     1      -1.576   8.262   1.393  0.00  0.00    +0.000 C 
ATOM     46  C   UNL     1      -1.029   9.571   1.937  0.00  0.00    +0.000 C 
ATOM     47  C   UNL     1      -2.103  10.707   1.836  0.00  0.00    +0.000 C 
BRANCH  47  48
ATOM     48  O   UNL     1      -1.486  11.970   2.090  0.00  0.00    +0.000 OA
ATOM     49  H   UNL     1      -0.683  12.037   1.541  0.00  0.00    +0.000 HD
ENDBRANCH  47  48
BRANCH  46  50
ATOM     50  O   UNL     1      -0.587   9.406   3.283  0.00  0.00    +0.000 OA
ATOM     51  H   UNL     1      -1.347   9.063   3.784  0.00  0.00    +0.000 HD
ENDBRANCH  46  50
BRANCH  45  52
ATOM     52  O   UNL     1      -2.575   7.729   2.272  0.00  0.00    +0.000 OA
ATOM     53  H   UNL     1      -3.384   8.263   2.196  0.00  0.00    +0.000 HD
ENDBRANCH  45  52
ENDBRANCH  40  44
ENDBRANCH  39  40
ENDBRANCH   1  39
TORSDOF 16
