REMARK  Name = Ruxolitinib
REMARK  5 active torsions:
REMARK  status: ('A' for Active; 'I' for Inactive)
REMARK    1  A    between atoms: C_2  and  C_3
REMARK    2  A    between atoms: C_3  and  C_4
REMARK    3  A    between atoms: C_4  and  C_5
REMARK    4  A    between atoms: C_4  and  N_10
REMARK    5  A    between atoms: C_12  and  C_15
REMARK                            x       y       z     vdW  Elec       q    Type
REMARK                         _______ _______ _______ _____ _____    ______ ____
ROOT
ATOM      1  N   UNL     1       5.732   1.073  -0.428  0.00  0.00    +0.000 N 
ATOM      2  C   UNL     1       6.526   1.103   0.690  0.00  0.00    +0.000 A 
ATOM      3  C   UNL     1       7.860   1.034   0.307  0.00  0.00    +0.000 A 
ATOM      4  C   UNL     1       7.701   0.652  -1.087  0.00  0.00    +0.000 A 
ATOM      5  N   UNL     1       6.428   0.720  -1.533  0.00  0.00    +0.000 NA
ENDROOT
BRANCH   3   6
ATOM      6  C   UNL     1       8.812   2.166   0.726  0.00  0.00    +0.000 A 
ATOM      7  C   UNL     1       8.987   2.731   2.049  0.00  0.00    +0.000 A 
ATOM      8  C   UNL     1      10.107   3.442   2.674  0.00  0.00    +0.000 A 
ATOM      9  C   UNL     1       9.623   4.360   3.600  0.00  0.00    +0.000 A 
ATOM     10  N   UNL     1       8.254   4.309   3.533  0.00  0.00    +0.000 N 
ATOM     11  C   UNL     1       7.926   3.559   2.443  0.00  0.00    +0.000 A 
ATOM     12  N   UNL     1       6.859   3.858   1.691  0.00  0.00    +0.000 NA
ATOM     13  C   UNL     1       7.218   3.700   0.397  0.00  0.00    +0.000 A 
ATOM     14  N   UNL     1       8.369   3.177  -0.078  0.00  0.00    +0.000 NA
ATOM     15  H   UNL     1       7.606   4.969   3.942  0.00  0.00    +0.000 HD
ENDBRANCH   3   6
BRANCH   1  16
ATOM     16  C   UNL     1       4.276   1.262  -0.399  0.00  0.00    +0.000 C 
BRANCH  16  17
ATOM     17  C   UNL     1       3.598  -0.057   0.039  0.00  0.00    +0.000 C 
ATOM     18  C   UNL     1       3.945  -0.697   1.397  0.00  0.00    +0.000 C 
ATOM     19  C   UNL     1       5.176  -1.557   1.203  0.00  0.00    +0.000 C 
ATOM     20  C   UNL     1       5.146  -1.947  -0.264  0.00  0.00    +0.000 C 
ATOM     21  C   UNL     1       3.967  -1.199  -0.911  0.00  0.00    +0.000 C 
ENDBRANCH  16  17
BRANCH  16  22
ATOM     22  C   UNL     1       3.738   2.486   0.421  0.00  0.00    +0.000 C 
BRANCH  22  24
ATOM     23  N   UNL     1       3.665   2.113   3.022  0.00  0.00    +0.000 NA
ATOM     24  C   UNL     1       3.696   2.295   1.890  0.00  0.00    +0.000 C 
ENDBRANCH  22  24
ENDBRANCH  16  22
ENDBRANCH   1  16
TORSDOF 5
