REMARK  Name = Sacubitril
REMARK  15 active torsions:
REMARK  status: ('A' for Active; 'I' for Inactive)
REMARK    1  A    between atoms: C_1  and  C_2
REMARK    2  A    between atoms: C_2  and  O_3
REMARK    3  A    between atoms: O_3  and  C_4
REMARK    4  A    between atoms: C_4  and  C_6
REMARK    5  A    between atoms: C_6  and  C_7
REMARK    6  A    between atoms: C_6  and  C_8
REMARK    7  A    between atoms: C_8  and  C_9
REMARK    8  A    between atoms: C_9  and  C_10
REMARK    9  A    between atoms: C_9  and  N_23
REMARK   10  A    between atoms: C_10  and  C_11
REMARK   11  A    between atoms: C_14  and  C_17
REMARK   12  A    between atoms: C_24  and  C_26
REMARK   13  A    between atoms: C_26  and  C_27
REMARK   14  A    between atoms: C_27  and  C_28
REMARK   15  A    between atoms: C_28  and  O_29
REMARK                            x       y       z     vdW  Elec       q    Type
REMARK                         _______ _______ _______ _____ _____    ______ ____
ROOT
ATOM      1  C   UNL     1       6.886   2.321   3.861  0.00  0.00    +0.000 C 
ENDROOT
BRANCH   1   2
ATOM      2  N   UNL     1       8.372   2.290   3.977  0.00  0.00    +0.000 N 
ATOM      3  C   UNL     1       9.047   2.904   5.006  0.00  0.00    +0.000 C 
ATOM      4  O   UNL     1       8.475   3.494   5.916  0.00  0.00    +0.000 OA
ATOM      5  H   UNL     1       8.905   1.862   3.226  0.00  0.00    +0.000 HD
BRANCH   3   6
ATOM      6  C   UNL     1      10.557   2.803   4.947  0.00  0.00    +0.000 C 
BRANCH   6   7
ATOM      7  C   UNL     1      11.170   3.459   6.183  0.00  0.00    +0.000 C 
BRANCH   7   8
ATOM      8  C   UNL     1      12.685   3.505   6.273  0.00  0.00    +0.000 C 
ATOM      9  O   UNL     1      13.256   4.004   7.195  0.00  0.00    +0.000 OA
BRANCH   8  10
ATOM     10  O   UNL     1      13.361   2.941   5.239  0.00  0.00    +0.000 OA
ATOM     11  H   UNL     1      12.855   2.548   4.514  0.00  0.00    +0.000 HD
ENDBRANCH   8  10
ENDBRANCH   7   8
ENDBRANCH   6   7
ENDBRANCH   3   6
ENDBRANCH   1   2
BRANCH   1  12
ATOM     12  C   UNL     1       6.532   1.517   2.578  0.00  0.00    +0.000 C 
BRANCH  12  13
ATOM     13  C   UNL     1       5.066   1.181   2.494  0.00  0.00    +0.000 C 
ATOM     14  C   UNL     1       4.529   0.875   1.084  0.00  0.00    +0.000 C 
BRANCH  13  15
ATOM     15  C   UNL     1       4.736  -0.152   3.317  0.00  0.00    +0.000 C 
ATOM     16  O   UNL     1       3.641  -0.685   3.084  0.00  0.00    +0.000 OA
BRANCH  15  17
ATOM     17  O   UNL     1       5.615  -0.543   4.456  0.00  0.00    +0.000 OA
BRANCH  17  19
ATOM     18  C   UNL     1       6.343  -0.578   7.200  0.00  0.00    +0.000 C 
ATOM     19  C   UNL     1       5.336  -0.955   6.117  0.00  0.00    +0.000 C 
ENDBRANCH  17  19
ENDBRANCH  15  17
ENDBRANCH  13  15
ENDBRANCH  12  13
ENDBRANCH   1  12
BRANCH   1  20
ATOM     20  C   UNL     1       6.170   1.813   5.162  0.00  0.00    +0.000 C 
BRANCH  20  21
ATOM     21  C   UNL     1       4.597   1.838   5.293  0.00  0.00    +0.000 A 
ATOM     22  C   UNL     1       3.937   3.026   5.313  0.00  0.00    +0.000 A 
ATOM     23  C   UNL     1       2.531   3.002   5.422  0.00  0.00    +0.000 A 
ATOM     24  C   UNL     1       1.760   1.810   5.495  0.00  0.00    +0.000 A 
ATOM     25  C   UNL     1       2.335   0.617   5.483  0.00  0.00    +0.000 A 
ATOM     26  C   UNL     1       3.658   0.741   5.325  0.00  0.00    +0.000 A 
BRANCH  24  27
ATOM     27  C   UNL     1       0.355   1.691   5.452  0.00  0.00    +0.000 A 
ATOM     28  C   UNL     1      -0.303   2.227   4.363  0.00  0.00    +0.000 A 
ATOM     29  C   UNL     1      -1.670   2.256   4.419  0.00  0.00    +0.000 A 
ATOM     30  C   UNL     1      -2.337   1.594   5.460  0.00  0.00    +0.000 A 
ATOM     31  C   UNL     1      -1.654   0.873   6.438  0.00  0.00    +0.000 A 
ATOM     32  C   UNL     1      -0.288   0.912   6.428  0.00  0.00    +0.000 A 
ENDBRANCH  24  27
ENDBRANCH  20  21
ENDBRANCH   1  20
TORSDOF 13
