REMARK  Name = Safinamide
REMARK  8 active torsions:
REMARK  status: ('A' for Active; 'I' for Inactive)
REMARK    1  A    between atoms: C_1  and  C_2
REMARK    2  A    between atoms: C_2  and  N_3
REMARK    3  A    between atoms: C_2  and  C_20
REMARK    4  A    between atoms: N_3  and  C_4
REMARK    5  A    between atoms: C_4  and  C_5
REMARK    6  A    between atoms: C_8  and  O_9
REMARK    7  A    between atoms: O_9  and  C_10
REMARK    8  A    between atoms: C_10  and  C_11
REMARK                            x       y       z     vdW  Elec       q    Type
REMARK                         _______ _______ _______ _____ _____    ______ ____
ROOT
ATOM      1  C   UNL     1      -1.166  -0.983  -0.838  0.00  0.00    +0.000 A 
ATOM      2  C   UNL     1      -1.905  -0.393   0.188  0.00  0.00    +0.000 A 
ATOM      3  C   UNL     1      -3.216  -0.781   0.392  0.00  0.00    +0.000 A 
ATOM      4  C   UNL     1      -3.814  -1.689  -0.479  0.00  0.00    +0.000 A 
ATOM      5  C   UNL     1      -3.070  -2.319  -1.474  0.00  0.00    +0.000 A 
ATOM      6  C   UNL     1      -1.744  -1.976  -1.646  0.00  0.00    +0.000 A 
ENDROOT
BRANCH   1   7
ATOM      7  C   UNL     1       0.321  -0.919  -0.853  0.00  0.00    +0.000 C 
BRANCH   7   8
ATOM      8  N   UNL     1       0.987   0.075  -0.049  0.00  0.00    +0.000 NA
ATOM      9  H   UNL     1       0.645   0.029   0.907  0.00  0.00    +0.000 HD
BRANCH   8  11
ATOM     10  C   UNL     1       2.970   0.664   1.191  0.00  0.00    +0.000 C 
ATOM     11  C   UNL     1       2.458  -0.092  -0.037  0.00  0.00    +0.000 C 
BRANCH  11  12
ATOM     12  C   UNL     1       3.093  -1.532  -0.062  0.00  0.00    +0.000 C 
ATOM     13  N   UNL     1       2.377  -2.700  -0.060  0.00  0.00    +0.000 N 
ATOM     14  O   UNL     1       4.308  -1.663  -0.128  0.00  0.00    +0.000 OA
ATOM     15  H   UNL     1       1.481  -2.861   0.367  0.00  0.00    +0.000 HD
ATOM     16  H   UNL     1       2.924  -3.547  -0.131  0.00  0.00    +0.000 HD
ENDBRANCH  11  12
ENDBRANCH   8  11
ENDBRANCH   7   8
ENDBRANCH   1   7
BRANCH   4  17
ATOM     17  O   UNL     1      -5.144  -1.868  -0.270  0.00  0.00    +0.000 OA
BRANCH  17  18
ATOM     18  C   UNL     1      -5.830  -2.610  -1.271  0.00  0.00    +0.000 C 
BRANCH  18  19
ATOM     19  C   UNL     1      -7.303  -2.619  -0.967  0.00  0.00    +0.000 A 
ATOM     20  C   UNL     1      -7.831  -1.925   0.130  0.00  0.00    +0.000 A 
ATOM     21  C   UNL     1      -9.141  -2.152   0.518  0.00  0.00    +0.000 A 
ATOM     22  F   UNL     1      -9.586  -1.620   1.663  0.00  0.00    +0.000 F 
ATOM     23  C   UNL     1      -9.974  -2.972  -0.231  0.00  0.00    +0.000 A 
ATOM     24  C   UNL     1      -9.481  -3.602  -1.373  0.00  0.00    +0.000 A 
ATOM     25  C   UNL     1      -8.147  -3.429  -1.739  0.00  0.00    +0.000 A 
ENDBRANCH  18  19
ENDBRANCH  17  18
ENDBRANCH   4  17
TORSDOF 7
