REMARK  Name = Salbutamol
REMARK  11 active torsions:
REMARK  status: ('A' for Active; 'I' for Inactive)
REMARK    1  A    between atoms: C_1  and  C_2
REMARK    2  A    between atoms: C_2  and  C_3
REMARK    3  A    between atoms: C_2  and  C_4
REMARK    4  A    between atoms: C_2  and  N_5
REMARK    5  A    between atoms: N_5  and  C_6
REMARK    6  A    between atoms: C_6  and  C_7
REMARK    7  A    between atoms: C_7  and  O_8
REMARK    8  A    between atoms: C_7  and  C_9
REMARK    9  A    between atoms: C_11  and  C_12
REMARK   10  A    between atoms: C_12  and  O_13
REMARK   11  A    between atoms: C_14  and  O_15
REMARK                            x       y       z     vdW  Elec       q    Type
REMARK                         _______ _______ _______ _____ _____    ______ ____
ROOT
ATOM      1  C   UNL     1       6.530   0.301  -2.788  0.00  0.00    +0.000 A 
ATOM      2  C   UNL     1       7.259  -0.895  -2.920  0.00  0.00    +0.000 A 
ATOM      3  C   UNL     1       8.671  -0.901  -2.903  0.00  0.00    +0.000 A 
ATOM      4  C   UNL     1       9.325   0.325  -2.731  0.00  0.00    +0.000 A 
ATOM      5  C   UNL     1       8.622   1.507  -2.560  0.00  0.00    +0.000 A 
ATOM      6  C   UNL     1       7.231   1.496  -2.572  0.00  0.00    +0.000 A 
ENDROOT
BRANCH   4   7
ATOM      7  O   UNL     1      10.688   0.447  -2.713  0.00  0.00    +0.000 OA
ATOM      8  H   UNL     1      11.055  -0.447  -2.564  0.00  0.00    +0.000 HD
ENDBRANCH   4   7
BRANCH   1   9
ATOM      9  C   UNL     1       5.010   0.274  -2.794  0.00  0.00    +0.000 C 
BRANCH   9  10
ATOM     10  O   UNL     1       4.482   1.476  -3.367  0.00  0.00    +0.000 OA
ATOM     11  H   UNL     1       4.683   2.201  -2.756  0.00  0.00    +0.000 HD
ENDBRANCH   9  10
BRANCH   9  12
ATOM     12  C   UNL     1       4.512   0.110  -1.347  0.00  0.00    +0.000 C 
BRANCH  12  13
ATOM     13  N   UNL     1       3.047   0.100  -1.241  0.00  0.00    +0.000 NA
ATOM     14  H   UNL     1       2.676   0.939  -1.693  0.00  0.00    +0.000 HD
BRANCH  13  16
ATOM     15  C   UNL     1       1.008  -0.015   0.084  0.00  0.00    +0.000 C 
ATOM     16  C   UNL     1       2.546  -0.019   0.140  0.00  0.00    +0.000 C 
ATOM     17  C   UNL     1       3.003   1.164   1.011  0.00  0.00    +0.000 C 
ATOM     18  C   UNL     1       3.002  -1.352   0.759  0.00  0.00    +0.000 C 
ENDBRANCH  13  16
ENDBRANCH  12  13
ENDBRANCH   9  12
ENDBRANCH   1   9
BRANCH   3  19
ATOM     19  C   UNL     1       9.380  -2.218  -3.076  0.00  0.00    +0.000 C 
BRANCH  19  20
ATOM     20  O   UNL     1      10.795  -2.047  -3.146  0.00  0.00    +0.000 OA
ATOM     21  H   UNL     1      10.969  -1.719  -4.049  0.00  0.00    +0.000 HD
ENDBRANCH  19  20
ENDBRANCH   3  19
TORSDOF 8
