REMARK  Name = Salicylic acid
REMARK  3 active torsions:
REMARK  status: ('A' for Active; 'I' for Inactive)
REMARK    1  A    between atoms: O_1  and  C_2
REMARK    2  A    between atoms: C_2  and  C_4
REMARK    3  A    between atoms: C_9  and  O_10
REMARK                            x       y       z     vdW  Elec       q    Type
REMARK                         _______ _______ _______ _____ _____    ______ ____
ROOT
ATOM      1  C   UNL     1       3.068   1.271  -0.535  0.00  0.00    +0.000 A 
ATOM      2  C   UNL     1       4.164   1.188  -1.404  0.00  0.00    +0.000 A 
ATOM      3  C   UNL     1       4.815   2.351  -1.826  0.00  0.00    +0.000 A 
ATOM      4  C   UNL     1       4.394   3.594  -1.353  0.00  0.00    +0.000 A 
ATOM      5  C   UNL     1       3.312   3.682  -0.471  0.00  0.00    +0.000 A 
ATOM      6  C   UNL     1       2.641   2.522  -0.080  0.00  0.00    +0.000 A 
ENDROOT
BRANCH   1   7
ATOM      7  C   UNL     1       2.427   0.016  -0.079  0.00  0.00    +0.000 C 
ATOM      8  O   UNL     1       3.073  -0.976   0.228  0.00  0.00    +0.000 OA
BRANCH   7   9
ATOM      9  O   UNL     1       1.077   0.039  -0.121  0.00  0.00    +0.000 OA
ATOM     10  H   UNL     1       0.718   0.935  -0.284  0.00  0.00    +0.000 HD
ENDBRANCH   7   9
ENDBRANCH   1   7
BRANCH   6  11
ATOM     11  O   UNL     1       1.548   2.598   0.739  0.00  0.00    +0.000 OA
ATOM     12  H   UNL     1       1.457   3.507   1.075  0.00  0.00    +0.000 HD
ENDBRANCH   6  11
TORSDOF 3
