REMARK  Name = Salicylamide
REMARK  2 active torsions:
REMARK  status: ('A' for Active; 'I' for Inactive)
REMARK    1  A    between atoms: C_2  and  C_4
REMARK    2  A    between atoms: C_9  and  O_10
REMARK                            x       y       z     vdW  Elec       q    Type
REMARK                         _______ _______ _______ _____ _____    ______ ____
ROOT
ATOM      1  C   UNL     1       3.244   1.038   0.755  0.00  0.00    +0.000 A 
ATOM      2  C   UNL     1       4.420   1.645   0.289  0.00  0.00    +0.000 A 
ATOM      3  C   UNL     1       5.142   2.507   1.120  0.00  0.00    +0.000 A 
ATOM      4  C   UNL     1       4.706   2.743   2.424  0.00  0.00    +0.000 A 
ATOM      5  C   UNL     1       3.534   2.143   2.894  0.00  0.00    +0.000 A 
ATOM      6  C   UNL     1       2.796   1.307   2.053  0.00  0.00    +0.000 A 
ENDROOT
BRANCH   1   8
ATOM      7  N   UNL     1       1.179   0.120  -0.144  0.00  0.00    +0.000 N 
ATOM      8  C   UNL     1       2.545   0.066  -0.122  0.00  0.00    +0.000 C 
ATOM      9  O   UNL     1       3.170  -0.746  -0.798  0.00  0.00    +0.000 OA
ATOM     10  H   UNL     1       0.686  -0.640  -0.591  0.00  0.00    +0.000 HD
ATOM     11  H   UNL     1       0.683   0.676   0.542  0.00  0.00    +0.000 HD
ENDBRANCH   1   8
BRANCH   6  12
ATOM     12  O   UNL     1       1.635   0.739   2.505  0.00  0.00    +0.000 OA
ATOM     13  H   UNL     1       1.500   0.969   3.439  0.00  0.00    +0.000 HD
ENDBRANCH   6  12
TORSDOF 2
