REMARK  Name = Salmeterol
REMARK  19 active torsions:
REMARK  status: ('A' for Active; 'I' for Inactive)
REMARK    1  A    between atoms: O_1  and  C_2
REMARK    2  A    between atoms: C_2  and  C_3
REMARK    3  A    between atoms: C_4  and  O_5
REMARK    4  A    between atoms: C_8  and  C_10
REMARK    5  A    between atoms: C_10  and  O_11
REMARK    6  A    between atoms: C_10  and  C_12
REMARK    7  A    between atoms: C_12  and  N_13
REMARK    8  A    between atoms: N_13  and  C_14
REMARK    9  A    between atoms: C_14  and  C_15
REMARK   10  A    between atoms: C_15  and  C_16
REMARK   11  A    between atoms: C_16  and  C_17
REMARK   12  A    between atoms: C_17  and  C_18
REMARK   13  A    between atoms: C_18  and  C_19
REMARK   14  A    between atoms: C_19  and  O_20
REMARK   15  A    between atoms: O_20  and  C_21
REMARK   16  A    between atoms: C_21  and  C_22
REMARK   17  A    between atoms: C_22  and  C_23
REMARK   18  A    between atoms: C_23  and  C_24
REMARK   19  A    between atoms: C_24  and  C_25
REMARK                            x       y       z     vdW  Elec       q    Type
REMARK                         _______ _______ _______ _____ _____    ______ ____
ROOT
ATOM      1  N   UNL     1       2.357   6.106   1.984  0.00  0.00    +0.000 NA
ATOM      2  H   UNL     1       3.260   6.486   2.276  0.00  0.00    +0.000 HD
ENDROOT
BRANCH   1   3
ATOM      3  C   UNL     1       1.908   6.707   0.738  0.00  0.00    +0.000 C 
BRANCH   3   4
ATOM      4  C   UNL     1       1.766   8.198   0.950  0.00  0.00    +0.000 C 
BRANCH   4   5
ATOM      5  C   UNL     1       1.272   8.845  -0.331  0.00  0.00    +0.000 C 
BRANCH   5   6
ATOM      6  C   UNL     1       1.129  10.339  -0.125  0.00  0.00    +0.000 C 
BRANCH   6   7
ATOM      7  C   UNL     1       0.638  11.002  -1.396  0.00  0.00    +0.000 C 
BRANCH   7   8
ATOM      8  C   UNL     1       0.506  12.489  -1.165  0.00  0.00    +0.000 C 
BRANCH   8   9
ATOM      9  O   UNL     1       0.047  13.083  -2.369  0.00  0.00    +0.000 OA
BRANCH   9  10
ATOM     10  C   UNL     1      -0.091  14.481  -2.187  0.00  0.00    +0.000 C 
BRANCH  10  11
ATOM     11  C   UNL     1      -0.588  15.088  -3.486  0.00  0.00    +0.000 C 
BRANCH  11  12
ATOM     12  C   UNL     1      -0.740  16.577  -3.276  0.00  0.00    +0.000 C 
BRANCH  12  13
ATOM     13  C   UNL     1      -1.248  17.317  -4.507  0.00  0.00    +0.000 C 
BRANCH  13  14
ATOM     14  C   UNL     1      -1.341  18.811  -4.281  0.00  0.00    +0.000 A 
ATOM     15  C   UNL     1      -1.709  19.643  -5.347  0.00  0.00    +0.000 A 
ATOM     16  C   UNL     1      -1.671  21.031  -5.195  0.00  0.00    +0.000 A 
ATOM     17  C   UNL     1      -1.324  21.601  -3.974  0.00  0.00    +0.000 A 
ATOM     18  C   UNL     1      -1.006  20.787  -2.893  0.00  0.00    +0.000 A 
ATOM     19  C   UNL     1      -1.016  19.406  -3.052  0.00  0.00    +0.000 A 
ENDBRANCH  13  14
ENDBRANCH  12  13
ENDBRANCH  11  12
ENDBRANCH  10  11
ENDBRANCH   9  10
ENDBRANCH   8   9
ENDBRANCH   7   8
ENDBRANCH   6   7
ENDBRANCH   5   6
ENDBRANCH   4   5
ENDBRANCH   3   4
ENDBRANCH   1   3
BRANCH   1  20
ATOM     20  C   UNL     1       2.490   4.668   1.788  0.00  0.00    +0.000 C 
BRANCH  20  21
ATOM     21  C   UNL     1       3.011   3.935   3.038  0.00  0.00    +0.000 C 
BRANCH  21  26
ATOM     22  C   UNL     1       2.950   0.438   1.389  0.00  0.00    +0.000 A 
ATOM     23  C   UNL     1       3.432  -0.330   2.449  0.00  0.00    +0.000 A 
ATOM     24  C   UNL     1       3.747   0.259   3.675  0.00  0.00    +0.000 A 
ATOM     25  C   UNL     1       3.608   1.634   3.861  0.00  0.00    +0.000 A 
ATOM     26  C   UNL     1       3.163   2.443   2.814  0.00  0.00    +0.000 A 
ATOM     27  C   UNL     1       2.835   1.823   1.593  0.00  0.00    +0.000 A 
BRANCH  23  28
ATOM     28  O   UNL     1       3.631  -1.679   2.383  0.00  0.00    +0.000 OA
ATOM     29  H   UNL     1       3.379  -2.009   1.510  0.00  0.00    +0.000 HD
ENDBRANCH  23  28
BRANCH  22  30
ATOM     30  C   UNL     1       2.474  -0.098   0.068  0.00  0.00    +0.000 C 
BRANCH  30  31
ATOM     31  O   UNL     1       1.053  -0.081   0.067  0.00  0.00    +0.000 OA
ATOM     32  H   UNL     1       0.756  -0.440  -0.785  0.00  0.00    +0.000 HD
ENDBRANCH  30  31
ENDBRANCH  22  30
ENDBRANCH  21  26
BRANCH  21  33
ATOM     33  O   UNL     1       4.283   4.490   3.401  0.00  0.00    +0.000 OA
ATOM     34  H   UNL     1       4.908   4.239   2.702  0.00  0.00    +0.000 HD
ENDBRANCH  21  33
ENDBRANCH  20  21
ENDBRANCH   1  20
TORSDOF 19
