REMARK  Name = Salsalate
REMARK  6 active torsions:
REMARK  status: ('A' for Active; 'I' for Inactive)
REMARK    1  A    between atoms: O_1  and  C_2
REMARK    2  A    between atoms: C_2  and  C_4
REMARK    3  A    between atoms: C_9  and  O_10
REMARK    4  A    between atoms: O_10  and  C_11
REMARK    5  A    between atoms: C_11  and  C_13
REMARK    6  A    between atoms: C_18  and  O_19
REMARK                            x       y       z     vdW  Elec       q    Type
REMARK                         _______ _______ _______ _____ _____    ______ ____
ROOT
ATOM      1  O   UNL     1       1.420  -2.729   0.536  0.00  0.00    +0.000 OA
ENDROOT
BRANCH   1   7
ATOM      2  C   UNL     1       3.104  -0.868   0.852  0.00  0.00    +0.000 A 
ATOM      3  C   UNL     1       4.346  -0.510   1.403  0.00  0.00    +0.000 A 
ATOM      4  C   UNL     1       5.191  -1.460   1.967  0.00  0.00    +0.000 A 
ATOM      5  C   UNL     1       4.782  -2.786   2.044  0.00  0.00    +0.000 A 
ATOM      6  C   UNL     1       3.532  -3.164   1.535  0.00  0.00    +0.000 A 
ATOM      7  C   UNL     1       2.683  -2.210   0.933  0.00  0.00    +0.000 A 
BRANCH   2   8
ATOM      8  C   UNL     1       2.479   0.278   0.137  0.00  0.00    +0.000 C 
ATOM      9  O   UNL     1       3.105   0.947  -0.672  0.00  0.00    +0.000 OA
BRANCH   8  10
ATOM     10  O   UNL     1       1.274   0.644   0.616  0.00  0.00    +0.000 OA
ATOM     11  H   UNL     1       0.665  -0.112   0.627  0.00  0.00    +0.000 HD
ENDBRANCH   8  10
ENDBRANCH   2   8
ENDBRANCH   1   7
BRANCH   1  12
ATOM     12  C   UNL     1       0.776  -2.160  -0.544  0.00  0.00    +0.000 C 
ATOM     13  O   UNL     1       1.266  -1.347  -1.293  0.00  0.00    +0.000 OA
BRANCH  12  14
ATOM     14  C   UNL     1      -0.650  -2.497  -0.726  0.00  0.00    +0.000 A 
ATOM     15  C   UNL     1      -1.220  -1.946  -1.893  0.00  0.00    +0.000 A 
ATOM     16  C   UNL     1      -2.546  -2.172  -2.221  0.00  0.00    +0.000 A 
ATOM     17  C   UNL     1      -3.306  -2.995  -1.401  0.00  0.00    +0.000 A 
ATOM     18  C   UNL     1      -2.772  -3.502  -0.207  0.00  0.00    +0.000 A 
ATOM     19  C   UNL     1      -1.447  -3.229   0.148  0.00  0.00    +0.000 A 
BRANCH  19  20
ATOM     20  O   UNL     1      -0.954  -3.651   1.348  0.00  0.00    +0.000 OA
ATOM     21  H   UNL     1      -1.604  -4.212   1.802  0.00  0.00    +0.000 HD
ENDBRANCH  19  20
ENDBRANCH  12  14
ENDBRANCH   1  12
TORSDOF 6
