REMARK  Name = Samarium (153Sm) lexidronam
REMARK  16 active torsions:
REMARK  status: ('A' for Active; 'I' for Inactive)
REMARK    1  A    between atoms: O_2  and  P_3
REMARK    2  A    between atoms: P_3  and  O_4
REMARK    3  A    between atoms: P_3  and  C_6
REMARK    4  A    between atoms: C_6  and  N_7
REMARK    5  A    between atoms: N_7  and  C_8
REMARK    6  A    between atoms: N_7  and  C_21
REMARK    7  A    between atoms: C_8  and  C_9
REMARK    8  A    between atoms: C_9  and  N_10
REMARK    9  A    between atoms: N_10  and  C_11
REMARK   10  A    between atoms: N_10  and  C_16
REMARK   11  A    between atoms: C_11  and  P_12
REMARK   12  A    between atoms: P_12  and  O_13
REMARK   13  A    between atoms: C_16  and  P_17
REMARK   14  A    between atoms: P_17  and  O_18
REMARK   15  A    between atoms: C_21  and  P_22
REMARK   16  A    between atoms: P_22  and  O_23
REMARK                            x       y       z     vdW  Elec       q    Type
REMARK                         _______ _______ _______ _____ _____    ______ ____
ROOT
ATOM      1 SM   UNL     1       0.930  -0.068  -0.020  0.00  0.00    +0.000 Sm
ENDROOT
TORSDOF 0
REMARK  Name = Samarium (153Sm) lexidronam
REMARK  16 active torsions:
REMARK  status: ('A' for Active; 'I' for Inactive)
REMARK    1  A    between atoms: O_2  and  P_3
REMARK    2  A    between atoms: P_3  and  O_4
REMARK    3  A    between atoms: P_3  and  C_6
REMARK    4  A    between atoms: C_6  and  N_7
REMARK    5  A    between atoms: N_7  and  C_8
REMARK    6  A    between atoms: N_7  and  C_21
REMARK    7  A    between atoms: C_8  and  C_9
REMARK    8  A    between atoms: C_9  and  N_10
REMARK    9  A    between atoms: N_10  and  C_11
REMARK   10  A    between atoms: N_10  and  C_16
REMARK   11  A    between atoms: C_11  and  P_12
REMARK   12  A    between atoms: P_12  and  O_13
REMARK   13  A    between atoms: C_16  and  P_17
REMARK   14  A    between atoms: P_17  and  O_18
REMARK   15  A    between atoms: C_21  and  P_22
REMARK   16  A    between atoms: P_22  and  O_23
REMARK                            x       y       z     vdW  Elec       q    Type
REMARK                         _______ _______ _______ _____ _____    ______ ____
ROOT
ATOM      1  C   UNL     2       4.646  -1.793  -1.550  0.00  0.00    +0.000 C 
ENDROOT
BRANCH   1   2
ATOM      2  C   UNL     2       3.126  -1.793  -1.550  0.00  0.00    +0.000 C 
BRANCH   2   3
ATOM      3  N   UNL     2       2.636  -2.224  -2.867  0.00  0.00    +0.000 NA
BRANCH   3   4
ATOM      4  C   UNL     2       3.126  -3.581  -3.151  0.00  0.00    +0.000 C 
BRANCH   4   5
ATOM      5  P   UNL     2       4.956  -3.581  -3.151  0.00  0.00    +0.000 P 
ATOM      6  O   UNL     2       4.956  -4.487  -1.678  0.00  0.00    +0.000 OA
ATOM      7  O   UNL     2       6.504  -3.581  -3.151  0.00  0.00    +0.000 OA
BRANCH   5   8
ATOM      8  O   UNL     2       4.956  -1.852  -3.104  0.00  0.00    +0.000 OA
ATOM      9  H   UNL     2       4.041  -1.528  -3.095  0.00  0.00    +0.000 HD
ENDBRANCH   5   8
ENDBRANCH   4   5
ENDBRANCH   3   4
BRANCH   3  10
ATOM     10  C   UNL     2       1.166  -2.224  -2.867  0.00  0.00    +0.000 C 
BRANCH  10  11
ATOM     11  P   UNL     2       0.556  -2.762  -4.506  0.00  0.00    +0.000 P 
ATOM     12  O   UNL     2      -0.331  -1.285  -4.661  0.00  0.00    +0.000 OA
ATOM     13  O   UNL     2       0.040  -3.217  -5.893  0.00  0.00    +0.000 OA
BRANCH  11  14
ATOM     14  O   UNL     2      -0.187  -4.144  -3.777  0.00  0.00    +0.000 OA
ATOM     15  H   UNL     2      -0.021  -4.134  -2.821  0.00  0.00    +0.000 HD
ENDBRANCH  11  14
ENDBRANCH  10  11
ENDBRANCH   3  10
ENDBRANCH   2   3
ENDBRANCH   1   2
BRANCH   1  16
ATOM     16  N   UNL     2       5.136  -1.361  -0.233  0.00  0.00    +0.000 NA
BRANCH  16  17
ATOM     17  C   UNL     2       4.646  -0.004   0.051  0.00  0.00    +0.000 C 
BRANCH  17  18
ATOM     18  P   UNL     2       2.816  -0.004   0.051  0.00  0.00    +0.000 P 
ATOM     19  O   UNL     2       2.816  -1.539   0.257  0.00  0.00    +0.000 OA
BRANCH  18  20
ATOM     20  O   UNL     2       2.816   1.052   1.421  0.00  0.00    +0.000 OA
ATOM     21  H   UNL     2       1.901   1.250   1.677  0.00  0.00    +0.000 HD
ENDBRANCH  18  20
BRANCH  18  22
ATOM     22  O   UNL     2       1.086  -0.004   0.051  0.00  0.00    +0.000 OA
ATOM     23  H   UNL     2       0.762   0.441   0.850  0.00  0.00    +0.000 HD
ENDBRANCH  18  22
ENDBRANCH  17  18
ENDBRANCH  16  17
BRANCH  16  24
ATOM     24  C   UNL     2       6.606  -1.361  -0.233  0.00  0.00    +0.000 C 
BRANCH  24  25
ATOM     25  P   UNL     2       7.216  -3.049  -0.587  0.00  0.00    +0.000 P 
ATOM     26  O   UNL     2       7.057  -3.458   1.086  0.00  0.00    +0.000 OA
ATOM     27  O   UNL     2       7.732  -4.478  -0.887  0.00  0.00    +0.000 OA
BRANCH  25  28
ATOM     28  O   UNL     2       8.701  -2.389  -1.179  0.00  0.00    +0.000 OA
ATOM     29  H   UNL     2       8.674  -1.421  -1.113  0.00  0.00    +0.000 HD
ENDBRANCH  25  28
ENDBRANCH  24  25
ENDBRANCH  16  24
ENDBRANCH   1  16
TORSDOF 16
