REMARK  Name = Samidorphan
REMARK  5 active torsions:
REMARK  status: ('A' for Active; 'I' for Inactive)
REMARK    1  A    between atoms: C_2  and  C_4
REMARK    2  A    between atoms: N_10  and  C_11
REMARK    3  A    between atoms: C_11  and  C_12
REMARK    4  A    between atoms: C_23  and  O_24
REMARK    5  A    between atoms: C_26  and  O_27
REMARK                            x       y       z     vdW  Elec       q    Type
REMARK                         _______ _______ _______ _____ _____    ______ ____
ROOT
ATOM      1  C   UNL     1       3.027   0.998  -0.659  0.00  0.00    +0.000 A 
ATOM      2  C   UNL     1       2.587   2.298  -0.811  0.00  0.00    +0.000 A 
ATOM      3  C   UNL     1       3.171   3.104  -1.750  0.00  0.00    +0.000 A 
ATOM      4  C   UNL     1       4.307   2.642  -2.389  0.00  0.00    +0.000 A 
ATOM      5  C   UNL     1       4.836   3.543  -3.418  0.00  0.00    +0.000 C 
ATOM      6  C   UNL     1       6.267   3.349  -3.471  0.00  0.00    +0.000 C 
ATOM      7  N   UNL     1       7.081   3.869  -2.077  0.00  0.00    +0.000 NA
ATOM      8  C   UNL     1       7.302   2.652  -1.378  0.00  0.00    +0.000 C 
ATOM      9  C   UNL     1       7.815   1.881  -2.507  0.00  0.00    +0.000 C 
ATOM     10  C   UNL     1       6.633   1.057  -2.857  0.00  0.00    +0.000 C 
ATOM     11  C   UNL     1       7.491  -0.209  -2.959  0.00  0.00    +0.000 C 
ATOM     12  C   UNL     1       6.967  -0.548  -1.655  0.00  0.00    +0.000 C 
ATOM     13  O   UNL     1       6.886   0.040  -0.532  0.00  0.00    +0.000 OA
ATOM     14  C   UNL     1       6.059  -1.471  -2.223  0.00  0.00    +0.000 C 
ATOM     15  C   UNL     1       5.379  -0.312  -3.712  0.00  0.00    +0.000 C 
ATOM     16  C   UNL     1       6.136   1.454  -4.126  0.00  0.00    +0.000 C 
ATOM     17  C   UNL     1       4.944   1.364  -2.127  0.00  0.00    +0.000 A 
ATOM     18  C   UNL     1       4.088   0.504  -1.399  0.00  0.00    +0.000 A 
ENDROOT
BRANCH   1  20
ATOM     19  N   UNL     1       1.013   0.024   0.155  0.00  0.00    +0.000 N 
ATOM     20  C   UNL     1       2.366   0.037   0.249  0.00  0.00    +0.000 C 
ATOM     21  O   UNL     1       2.969  -0.742   0.975  0.00  0.00    +0.000 OA
ATOM     22  H   UNL     1       0.546  -0.700   0.677  0.00  0.00    +0.000 HD
ATOM     23  H   UNL     1       0.532   0.553  -0.555  0.00  0.00    +0.000 HD
ENDBRANCH   1  20
BRANCH  16  24
ATOM     24  O   UNL     1       6.680   1.294  -5.428  0.00  0.00    +0.000 OA
ATOM     25  H   UNL     1       5.934   1.266  -6.075  0.00  0.00    +0.000 HD
ENDBRANCH  16  24
BRANCH  18  26
ATOM     26  O   UNL     1       3.930  -0.848  -1.421  0.00  0.00    +0.000 OA
ATOM     27  H   UNL     1       4.182  -1.292  -2.228  0.00  0.00    +0.000 HD
ENDBRANCH  18  26
BRANCH   7  28
ATOM     28  C   UNL     1       6.745   4.824  -0.945  0.00  0.00    +0.000 C 
BRANCH  28  29
ATOM     29  C   UNL     1       5.404   4.736  -0.282  0.00  0.00    +0.000 C 
ATOM     30  C   UNL     1       5.134   3.884   0.958  0.00  0.00    +0.000 C 
ATOM     31  C   UNL     1       5.021   5.377   1.049  0.00  0.00    +0.000 C 
ENDBRANCH  28  29
ENDBRANCH   7  28
TORSDOF 5
