REMARK  Name = Sapropterin
REMARK  5 active torsions:
REMARK  status: ('A' for Active; 'I' for Inactive)
REMARK    1  A    between atoms: C_2  and  C_14
REMARK    2  A    between atoms: C_14  and  O_15
REMARK    3  A    between atoms: C_14  and  C_16
REMARK    4  A    between atoms: C_16  and  C_17
REMARK    5  A    between atoms: C_16  and  O_18
REMARK                            x       y       z     vdW  Elec       q    Type
REMARK                         _______ _______ _______ _____ _____    ______ ____
ROOT
ATOM      1  C   UNL     1       4.431  -0.921   0.896  0.00  0.00    +0.000 C 
ATOM      2  C   UNL     1       3.001  -0.404   1.202  0.00  0.00    +0.000 C 
ATOM      3  N   UNL     1       2.781  -0.164   2.609  0.00  0.00    +0.000 N 
ATOM      4  C   UNL     1       3.417  -0.911   3.579  0.00  0.00    +0.000 A 
ATOM      5  C   UNL     1       4.392  -1.776   3.187  0.00  0.00    +0.000 A 
ATOM      6  N   UNL     1       4.736  -1.990   1.852  0.00  0.00    +0.000 N 
ATOM      7  C   UNL     1       5.138  -2.465   4.265  0.00  0.00    +0.000 A 
ATOM      8  O   UNL     1       6.087  -3.219   4.027  0.00  0.00    +0.000 OA
ATOM      9  N   UNL     1       4.732  -2.177   5.528  0.00  0.00    +0.000 N 
ATOM     10  C   UNL     1       3.710  -1.326   5.796  0.00  0.00    +0.000 A 
ATOM     11  N   UNL     1       3.391  -1.128   7.084  0.00  0.00    +0.000 N 
ATOM     12  N   UNL     1       3.043  -0.711   4.872  0.00  0.00    +0.000 NA
ATOM     13  H   UNL     1       1.896   0.227   2.909  0.00  0.00    +0.000 HD
ATOM     14  H   UNL     1       5.526  -2.612   1.681  0.00  0.00    +0.000 HD
ATOM     15  H   UNL     1       5.233  -2.631   6.272  0.00  0.00    +0.000 HD
ATOM     16  H   UNL     1       3.885  -1.555   7.851  0.00  0.00    +0.000 HD
ATOM     17  H   UNL     1       2.610  -0.514   7.279  0.00  0.00    +0.000 HD
ENDROOT
BRANCH   1  18
ATOM     18  C   UNL     1       4.587  -1.427  -0.552  0.00  0.00    +0.000 C 
BRANCH  18  19
ATOM     19  O   UNL     1       5.969  -1.776  -0.788  0.00  0.00    +0.000 OA
ATOM     20  H   UNL     1       6.524  -0.994  -0.621  0.00  0.00    +0.000 HD
ENDBRANCH  18  19
BRANCH  18  21
ATOM     21  C   UNL     1       4.092  -0.378  -1.583  0.00  0.00    +0.000 C 
ATOM     22  C   UNL     1       2.569  -0.346  -1.746  0.00  0.00    +0.000 C 
BRANCH  21  23
ATOM     23  O   UNL     1       4.615  -0.659  -2.883  0.00  0.00    +0.000 OA
ATOM     24  H   UNL     1       4.369  -1.576  -3.102  0.00  0.00    +0.000 HD
ENDBRANCH  21  23
ENDBRANCH  18  21
ENDBRANCH   1  18
TORSDOF 4
