REMARK  Name = Sarecycline
REMARK  13 active torsions:
REMARK  status: ('A' for Active; 'I' for Inactive)
REMARK    1  A    between atoms: C_5  and  C_6
REMARK    2  A    between atoms: C_6  and  N_7
REMARK    3  A    between atoms: N_7  and  C_8
REMARK    4  A    between atoms: N_7  and  O_9
REMARK    5  A    between atoms: O_9  and  C_10
REMARK    6  A    between atoms: C_13  and  O_14
REMARK    7  A    between atoms: C_19  and  O_20
REMARK    8  A    between atoms: C_21  and  O_22
REMARK    9  A    between atoms: C_25  and  C_26
REMARK   10  A    between atoms: C_29  and  O_30
REMARK   11  A    between atoms: C_31  and  N_32
REMARK   12  A    between atoms: N_32  and  C_33
REMARK   13  A    between atoms: N_32  and  C_34
REMARK                            x       y       z     vdW  Elec       q    Type
REMARK                         _______ _______ _______ _____ _____    ______ ____
ROOT
ATOM      1  C   UNL     1       2.108   0.074  -0.018  0.00  0.00    +0.000 C 
ATOM      2  C   UNL     1       2.542  -0.639   1.240  0.00  0.00    +0.000 C 
ATOM      3  C   UNL     1       2.238  -2.099   1.216  0.00  0.00    +0.000 A 
ATOM      4  C   UNL     1       1.944  -2.759   2.418  0.00  0.00    +0.000 A 
ATOM      5  C   UNL     1       1.713  -4.142   2.354  0.00  0.00    +0.000 A 
ATOM      6  C   UNL     1       1.928  -4.882   1.201  0.00  0.00    +0.000 A 
ATOM      7  C   UNL     1       2.218  -4.224   0.022  0.00  0.00    +0.000 A 
ATOM      8  C   UNL     1       2.344  -2.830   0.010  0.00  0.00    +0.000 A 
ATOM      9  C   UNL     1       2.620  -2.120  -1.264  0.00  0.00    +0.000 C 
ATOM     10  O   UNL     1       2.922  -2.712  -2.297  0.00  0.00    +0.000 OA
ATOM     11  C   UNL     1       2.553  -0.630  -1.266  0.00  0.00    +0.000 C 
ATOM     12  C   UNL     1       2.908   0.036  -2.385  0.00  0.00    +0.000 C 
ATOM     13  C   UNL     1       2.856   1.544  -2.506  0.00  0.00    +0.000 C 
ATOM     14  C   UNL     1       4.167   2.163  -2.955  0.00  0.00    +0.000 C 
ATOM     15  O   UNL     1       5.245   1.569  -2.811  0.00  0.00    +0.000 OA
ATOM     16  C   UNL     1       4.188   3.639  -3.250  0.00  0.00    +0.000 C 
ATOM     17  C   UNL     1       4.296   4.112  -2.008  0.00  0.00    +0.000 C 
ATOM     18  C   UNL     1       2.927   3.786  -1.039  0.00  0.00    +0.000 C 
ATOM     19  C   UNL     1       2.526   2.250  -1.175  0.00  0.00    +0.000 C 
ATOM     20  C   UNL     1       2.734   1.475   0.101  0.00  0.00    +0.000 C 
ENDROOT
BRANCH  16  21
ATOM     21  C   UNL     1       3.104   4.600  -3.666  0.00  0.00    +0.000 C 
ATOM     22  N   UNL     1       3.348   5.961  -3.488  0.00  0.00    +0.000 N 
ATOM     23  O   UNL     1       1.979   4.241  -4.025  0.00  0.00    +0.000 OA
ATOM     24  H   UNL     1       4.163   6.272  -2.960  0.00  0.00    +0.000 HD
ATOM     25  H   UNL     1       2.533   6.507  -3.230  0.00  0.00    +0.000 HD
ENDBRANCH  16  21
BRANCH  18  26
ATOM     26  N   UNL     1       1.541   4.414  -0.975  0.00  0.00    +0.000 NA
ATOM     27  C   UNL     1       0.307   3.930  -1.678  0.00  0.00    +0.000 C 
ATOM     28  C   UNL     1       1.393   5.824  -0.735  0.00  0.00    +0.000 C 
ENDBRANCH  18  26
BRANCH   7  29
ATOM     29  O   UNL     1       2.347  -4.962  -1.118  0.00  0.00    +0.000 OA
ATOM     30  H   UNL     1       2.224  -5.904  -0.929  0.00  0.00    +0.000 HD
ENDBRANCH   7  29
BRANCH  12  31
ATOM     31  O   UNL     1       3.276  -0.604  -3.563  0.00  0.00    +0.000 OA
ATOM     32  H   UNL     1       3.308  -1.574  -3.379  0.00  0.00    +0.000 HD
ENDBRANCH  12  31
BRANCH  13  33
ATOM     33  O   UNL     1       1.854   1.758  -3.493  0.00  0.00    +0.000 OA
ATOM     34  H   UNL     1       2.175   1.311  -4.301  0.00  0.00    +0.000 HD
ENDBRANCH  13  33
BRANCH  17  35
ATOM     35  O   UNL     1       5.207   5.227  -1.910  0.00  0.00    +0.000 OA
ATOM     36  H   UNL     1       5.804   5.206  -2.721  0.00  0.00    +0.000 HD
ENDBRANCH  17  35
BRANCH   4  37
ATOM     37  C   UNL     1       1.915  -2.010   3.754  0.00  0.00    +0.000 C 
BRANCH  37  38
ATOM     38  N   UNL     1       1.770  -2.918   4.907  0.00  0.00    +0.000 NA
ATOM     39  C   UNL     1       2.987  -3.728   5.068  0.00  0.00    +0.000 C 
BRANCH  38  40
ATOM     40  O   UNL     1       1.703  -2.064   6.093  0.00  0.00    +0.000 OA
ATOM     41  C   UNL     1       1.306  -2.868   7.208  0.00  0.00    +0.000 C 
ENDBRANCH  38  40
ENDBRANCH  37  38
ENDBRANCH   4  37
TORSDOF 9
