REMARK  Name = Saxagliptin
REMARK  5 active torsions:
REMARK  status: ('A' for Active; 'I' for Inactive)
REMARK    1  A    between atoms: C_7  and  C_9
REMARK    2  A    between atoms: C_11  and  C_13
REMARK    3  A    between atoms: C_13  and  N_14
REMARK    4  A    between atoms: C_13  and  C_15
REMARK    5  A    between atoms: C_21  and  O_22
REMARK                            x       y       z     vdW  Elec       q    Type
REMARK                         _______ _______ _______ _____ _____    ______ ____
ROOT
ATOM      1  C   UNL     1       6.019   2.273  -0.814  0.00  0.00    +0.000 C 
ENDROOT
BRANCH   1   2
ATOM      2  C   UNL     1       7.411   2.325  -1.256  0.00  0.00    +0.000 C 
ATOM      3  C   UNL     1       8.528   2.592  -0.162  0.00  0.00    +0.000 C 
ATOM      4  C   UNL     1       9.797   1.285  -0.459  0.00  0.00    +0.000 C 
ATOM      5  C   UNL     1       9.007  -0.469  -0.906  0.00  0.00    +0.000 C 
ATOM      6  C   UNL     1       7.854  -0.205  -2.008  0.00  0.00    +0.000 C 
ATOM      7  C   UNL     1       8.403   0.329  -3.308  0.00  0.00    +0.000 C 
ATOM      8  C   UNL     1       8.877   1.966  -3.186  0.00  0.00    +0.000 C 
ATOM      9  C   UNL     1      10.080   2.373  -1.810  0.00  0.00    +0.000 C 
ATOM     10  C   UNL     1       7.819   2.906  -2.614  0.00  0.00    +0.000 C 
ATOM     11  C   UNL     1       7.629   0.913  -1.183  0.00  0.00    +0.000 C 
BRANCH   8  12
ATOM     12  O   UNL     1       8.765   2.308  -4.553  0.00  0.00    +0.000 OA
ATOM     13  H   UNL     1       7.938   1.821  -4.829  0.00  0.00    +0.000 HD
ENDBRANCH   8  12
ENDBRANCH   1   2
BRANCH   1  20
ATOM     14  C   UNL     1       2.012  -0.066   0.024  0.00  0.00    +0.000 C 
ATOM     15  C   UNL     1       2.976  -1.185   0.282  0.00  0.00    +0.000 C 
ATOM     16  C   UNL     1       3.150  -0.317  -0.940  0.00  0.00    +0.000 C 
ATOM     17  N   UNL     1       3.889   0.917  -1.061  0.00  0.00    +0.000 N 
ATOM     18  C   UNL     1       3.174   1.983  -0.450  0.00  0.00    +0.000 C 
ATOM     19  C   UNL     1       2.234   1.318   0.576  0.00  0.00    +0.000 C 
ATOM     20  C   UNL     1       5.245   0.842  -0.800  0.00  0.00    +0.000 C 
ATOM     21  O   UNL     1       5.659  -0.183  -0.395  0.00  0.00    +0.000 OA
BRANCH  18  22
ATOM     22  C   UNL     1       3.934   3.135   0.187  0.00  0.00    +0.000 C 
ATOM     23  N   UNL     1       4.564   4.090   0.715  0.00  0.00    +0.000 NA
ENDBRANCH  18  22
ENDBRANCH   1  20
BRANCH   1  24
ATOM     24  N   UNL     1       6.265   2.485   0.611  0.00  0.00    +0.000 NA
ATOM     25  H   UNL     1       6.605   1.704   1.147  0.00  0.00    +0.000 HD
ATOM     26  H   UNL     1       5.679   3.107   1.146  0.00  0.00    +0.000 HD
ENDBRANCH   1  24
TORSDOF 5
