REMARK  Name = Scopolamine
REMARK  7 active torsions:
REMARK  status: ('A' for Active; 'I' for Inactive)
REMARK    1  A    between atoms: C_1  and  N_2
REMARK    2  A    between atoms: C_5  and  O_11
REMARK    3  A    between atoms: O_11  and  C_12
REMARK    4  A    between atoms: C_12  and  C_14
REMARK    5  A    between atoms: C_14  and  C_15
REMARK    6  A    between atoms: C_14  and  C_17
REMARK    7  A    between atoms: C_15  and  O_16
REMARK                            x       y       z     vdW  Elec       q    Type
REMARK                         _______ _______ _______ _____ _____    ______ ____
ROOT
ATOM      1  C   UNL     1       2.161  -1.818  -2.872  0.00  0.00    +0.000 C 
ATOM      2  O   UNL     1       1.575  -2.157  -3.914  0.00  0.00    +0.000 OA
ENDROOT
BRANCH   1   3
ATOM      3  O   UNL     1       3.437  -2.246  -2.744  0.00  0.00    +0.000 OA
BRANCH   3   8
ATOM      4  C   UNL     1       7.149  -3.755  -1.326  0.00  0.00    +0.000 C 
ATOM      5  N   UNL     1       6.863  -2.611  -0.490  0.00  0.00    +0.000 NA
ATOM      6  C   UNL     1       5.615  -2.722   0.296  0.00  0.00    +0.000 C 
ATOM      7  C   UNL     1       4.411  -2.976  -0.623  0.00  0.00    +0.000 C 
ATOM      8  C   UNL     1       4.329  -1.901  -1.683  0.00  0.00    +0.000 C 
ATOM      9  C   UNL     1       5.661  -1.419  -2.283  0.00  0.00    +0.000 C 
ATOM     10  C   UNL     1       6.764  -1.335  -1.225  0.00  0.00    +0.000 C 
ATOM     11  C   UNL     1       6.453  -0.448  -0.035  0.00  0.00    +0.000 C 
ATOM     12  O   UNL     1       5.098  -0.251   0.321  0.00  0.00    +0.000 OA
ATOM     13  C   UNL     1       5.690  -1.353   0.964  0.00  0.00    +0.000 C 
ENDBRANCH   3   8
ENDBRANCH   1   3
BRANCH   1  14
ATOM     14  C   UNL     1       1.432  -1.105  -1.714  0.00  0.00    +0.000 C 
BRANCH  14  15
ATOM     15  C   UNL     1       1.985   0.252  -1.257  0.00  0.00    +0.000 A 
ATOM     16  C   UNL     1       3.151   0.795  -1.809  0.00  0.00    +0.000 A 
ATOM     17  C   UNL     1       3.924   1.695  -1.079  0.00  0.00    +0.000 A 
ATOM     18  C   UNL     1       3.404   2.291   0.057  0.00  0.00    +0.000 A 
ATOM     19  C   UNL     1       2.116   1.963   0.465  0.00  0.00    +0.000 A 
ATOM     20  C   UNL     1       1.432   0.911  -0.150  0.00  0.00    +0.000 A 
ENDBRANCH  14  15
BRANCH  14  21
ATOM     21  C   UNL     1      -0.084  -0.964  -1.976  0.00  0.00    +0.000 C 
BRANCH  21  22
ATOM     22  O   UNL     1      -0.679  -2.083  -2.617  0.00  0.00    +0.000 OA
ATOM     23  H   UNL     1      -0.034  -2.813  -2.620  0.00  0.00    +0.000 HD
ENDBRANCH  21  22
ENDBRANCH  14  21
ENDBRANCH   1  14
TORSDOF 6
