REMARK  Name = Secnidazole
REMARK  6 active torsions:
REMARK  status: ('A' for Active; 'I' for Inactive)
REMARK    1  A    between atoms: C_1  and  C_2
REMARK    2  A    between atoms: C_2  and  O_3
REMARK    3  A    between atoms: C_2  and  C_4
REMARK    4  A    between atoms: C_4  and  N_5
REMARK    5  A    between atoms: C_6  and  C_7
REMARK    6  A    between atoms: C_10  and  N_11
REMARK                            x       y       z     vdW  Elec       q    Type
REMARK                         _______ _______ _______ _____ _____    ______ ____
ROOT
ATOM      1  N   UNL     1       4.345   1.438   0.159  0.00  0.00    +0.000 N 
ATOM      2  C   UNL     1       5.170   1.568  -0.948  0.00  0.00    +0.000 A 
ATOM      3  C   UNL     1       4.693   1.717  -2.353  0.00  0.00    +0.000 C 
ATOM      4  N   UNL     1       6.439   1.518  -0.586  0.00  0.00    +0.000 NA
ATOM      5  C   UNL     1       6.445   1.331   0.773  0.00  0.00    +0.000 A 
ATOM      6  C   UNL     1       5.160   1.279   1.251  0.00  0.00    +0.000 A 
ENDROOT
BRANCH   6   7
ATOM      7  N   UNL     1       4.736   1.079   2.597  0.00  0.00    +0.000 N 
ATOM      8  O   UNL     1       3.520   1.018   2.820  0.00  0.00    +0.000 OA
ATOM      9  O   UNL     1       5.622   0.979   3.448  0.00  0.00    +0.000 OA
ENDBRANCH   6   7
BRANCH   1  10
ATOM     10  C   UNL     1       2.895   1.399   0.110  0.00  0.00    +0.000 C 
BRANCH  10  12
ATOM     11  C   UNL     1       0.869  -0.051  -0.006  0.00  0.00    +0.000 C 
ATOM     12  C   UNL     1       2.386  -0.039  -0.015  0.00  0.00    +0.000 C 
BRANCH  12  13
ATOM     13  O   UNL     1       2.841  -0.648  -1.224  0.00  0.00    +0.000 OA
ATOM     14  H   UNL     1       2.493  -0.151  -1.984  0.00  0.00    +0.000 HD
ENDBRANCH  12  13
ENDBRANCH  10  12
ENDBRANCH   1  10
TORSDOF 4
