REMARK  Name = Secobarbital
REMARK  7 active torsions:
REMARK  status: ('A' for Active; 'I' for Inactive)
REMARK    1  A    between atoms: C_1  and  C_2
REMARK    2  A    between atoms: C_2  and  C_3
REMARK    3  A    between atoms: C_3  and  C_4
REMARK    4  A    between atoms: C_4  and  C_5
REMARK    5  A    between atoms: C_4  and  C_6
REMARK    6  A    between atoms: C_6  and  C_7
REMARK    7  A    between atoms: C_7  and  C_8
REMARK                            x       y       z     vdW  Elec       q    Type
REMARK                         _______ _______ _______ _____ _____    ______ ____
ROOT
ATOM      1  C   UNL     1       5.129   2.369   1.780  0.00  0.00    +0.000 C 
ATOM      2  C   UNL     1       4.344   3.652   1.527  0.00  0.00    +0.000 C 
ATOM      3  O   UNL     1       3.200   3.843   1.941  0.00  0.00    +0.000 OA
ATOM      4  N   UNL     1       4.960   4.636   0.825  0.00  0.00    +0.000 N 
ATOM      5  C   UNL     1       6.254   4.648   0.416  0.00  0.00    +0.000 C 
ATOM      6  O   UNL     1       6.732   5.614  -0.157  0.00  0.00    +0.000 OA
ATOM      7  N   UNL     1       6.997   3.545   0.701  0.00  0.00    +0.000 N 
ATOM      8  C   UNL     1       6.608   2.466   1.442  0.00  0.00    +0.000 C 
ATOM      9  O   UNL     1       7.412   1.568   1.693  0.00  0.00    +0.000 OA
ATOM     10  H   UNL     1       4.428   5.485   0.695  0.00  0.00    +0.000 HD
ATOM     11  H   UNL     1       7.956   3.553   0.386  0.00  0.00    +0.000 HD
ENDROOT
BRANCH   1  12
ATOM     12  C   UNL     1       4.583   1.191   0.895  0.00  0.00    +0.000 C 
ATOM     13  C   UNL     1       5.094   1.291  -0.561  0.00  0.00    +0.000 C 
BRANCH  12  14
ATOM     14  C   UNL     1       3.048   1.108   0.904  0.00  0.00    +0.000 C 
BRANCH  14  16
ATOM     15  C   UNL     1       0.995  -0.039   0.092  0.00  0.00    +0.000 C 
ATOM     16  C   UNL     1       2.507  -0.056   0.084  0.00  0.00    +0.000 C 
ENDBRANCH  14  16
ENDBRANCH  12  14
ENDBRANCH   1  12
BRANCH   1  17
ATOM     17  C   UNL     1       4.996   2.095   3.298  0.00  0.00    +0.000 C 
BRANCH  17  18
ATOM     18  C   UNL     1       5.518   3.255   4.121  0.00  0.00    +0.000 C 
ATOM     19  C   UNL     1       5.428   3.316   5.452  0.00  0.00    +0.000 C 
ENDBRANCH  17  18
ENDBRANCH   1  17
TORSDOF 5
