REMARK  Name = Segesterone acetate
REMARK  6 active torsions:
REMARK  status: ('A' for Active; 'I' for Inactive)
REMARK    1  A    between atoms: C_6  and  O_7
REMARK    2  A    between atoms: C_6  and  C_11
REMARK    3  A    between atoms: O_7  and  C_8
REMARK    4  A    between atoms: C_8  and  C_9
REMARK    5  A    between atoms: C_11  and  C_12
REMARK    6  A    between atoms: C_14  and  C_15
REMARK                            x       y       z     vdW  Elec       q    Type
REMARK                         _______ _______ _______ _____ _____    ______ ____
ROOT
ATOM      1  C   UNL     1       1.890  -0.177  -0.313  0.00  0.00    +0.000 C 
ATOM      2  C   UNL     1       2.161  -0.100  -1.696  0.00  0.00    +0.000 C 
ATOM      3  C   UNL     1       3.181  -0.533  -0.725  0.00  0.00    +0.000 C 
ATOM      4  C   UNL     1       4.382  -0.321  -1.513  0.00  0.00    +0.000 C 
ATOM      5  C   UNL     1       2.501  -1.014   1.116  0.00  0.00    +0.000 C 
ATOM      6  C   UNL     1       2.784  -1.773   0.064  0.00  0.00    +0.000 C 
ATOM      7  C   UNL     1       1.925  -2.940  -0.321  0.00  0.00    +0.000 C 
ATOM      8  C   UNL     1       4.441  -1.671   0.662  0.00  0.00    +0.000 C 
ATOM      9  C   UNL     1       4.679  -0.276   1.396  0.00  0.00    +0.000 C 
ATOM     10  C   UNL     1       4.090   1.092   0.821  0.00  0.00    +0.000 C 
ATOM     11  C   UNL     1       4.390   2.198   1.759  0.00  0.00    +0.000 C 
ATOM     12  C   UNL     1       5.743   1.999   1.993  0.00  0.00    +0.000 C 
ATOM     13  C   UNL     1       6.907   1.441   2.509  0.00  0.00    +0.000 C 
ATOM     14  C   UNL     1       7.398   2.794   1.610  0.00  0.00    +0.000 C 
ATOM     15  O   UNL     1       8.576   2.787   1.310  0.00  0.00    +0.000 OA
ATOM     16  C   UNL     1       5.996   3.879   0.858  0.00  0.00    +0.000 C 
ATOM     17  C   UNL     1       4.599   3.500   0.978  0.00  0.00    +0.000 C 
ATOM     18  C   UNL     1       3.068   3.819   0.643  0.00  0.00    +0.000 C 
ATOM     19  C   UNL     1       2.293   2.631  -0.049  0.00  0.00    +0.000 C 
ATOM     20  C   UNL     1       2.611   1.265   0.582  0.00  0.00    +0.000 C 
ENDROOT
BRANCH   5  21
ATOM     21  C   UNL     1       2.691  -2.282   2.412  0.00  0.00    +0.000 C 
ATOM     22  C   UNL     1       3.414  -3.661   2.176  0.00  0.00    +0.000 C 
ATOM     23  O   UNL     1       2.239  -2.117   3.558  0.00  0.00    +0.000 OA
ENDBRANCH   5  21
BRANCH   5  24
ATOM     24  O   UNL     1       0.839  -1.211   1.486  0.00  0.00    +0.000 OA
BRANCH  24  25
ATOM     25  C   UNL     1      -0.283  -0.395   1.605  0.00  0.00    +0.000 C 
ATOM     26  C   UNL     1      -0.084   1.013   1.212  0.00  0.00    +0.000 C 
ATOM     27  O   UNL     1      -1.410  -0.802   1.858  0.00  0.00    +0.000 OA
ENDBRANCH  24  25
ENDBRANCH   5  24
TORSDOF 3
