REMARK  Name = Selenomethionine
REMARK  7 active torsions:
REMARK  status: ('A' for Active; 'I' for Inactive)
REMARK    1  A    between atoms: C_1  and  SE_2
REMARK    2  A    between atoms: SE_2  and  C_3
REMARK    3  A    between atoms: C_3  and  C_4
REMARK    4  A    between atoms: C_4  and  CA_5
REMARK    5  A    between atoms: CA_5  and  N_6
REMARK    6  A    between atoms: CA_5  and  C_7
REMARK    7  A    between atoms: C_7  and  O_8
REMARK                            x       y       z     vdW  Elec       q    Type
REMARK                         _______ _______ _______ _____ _____    ______ ____
ROOT
ATOM      1  CA  UNL     1       5.719   2.773  -1.647  0.00  0.00    +0.000 C 
ENDROOT
BRANCH   1   2
ATOM      2  N   UNL     1       5.229   1.587  -0.930  0.00  0.00    +0.000 NA
ATOM      3  H1  UNL     1       5.569   1.607   0.032  0.00  0.00    +0.000 HD
ATOM      4  H2  UNL     1       5.569   0.744  -1.394  0.00  0.00    +0.000 HD
ENDBRANCH   1   2
BRANCH   1   5
ATOM      5  C   UNL     1       7.239   2.773  -1.647  0.00  0.00    +0.000 C 
ATOM      6  OXT UNL     1       7.874   3.714  -2.217  0.00  0.00    +0.000 OA
BRANCH   5   7
ATOM      7  O   UNL     1       7.949   1.721  -1.011  0.00  0.00    +0.000 OA
ATOM      8  H   UNL     1       7.480   1.026  -0.591  0.00  0.00    +0.000 HD
ENDBRANCH   5   7
ENDBRANCH   1   5
BRANCH   1   9
ATOM      9  C   UNL     1       5.212   4.028  -0.956  0.00  0.00    +0.000 C 
BRANCH   9  10
ATOM     10  C   UNL     1       6.297   5.093  -0.938  0.00  0.00    +0.000 C 
BRANCH  10  12
ATOM     11  C   UNL     1       7.014   8.077  -0.028  0.00  0.00    +0.000 C 
ATOM     12 SE   UNL     1       5.616   6.703  -0.052  0.00  0.00    +0.000 Se
ENDBRANCH  10  12
ENDBRANCH   9  10
ENDBRANCH   1   9
TORSDOF 6
