REMARK  Name = Selenium Sulfide
REMARK  0 active torsions:
REMARK  status: ('A' for Active; 'I' for Inactive)
REMARK                            x       y       z     vdW  Elec       q    Type
REMARK                         _______ _______ _______ _____ _____    ______ ____
ROOT
ATOM      1  S   UNL     1       1.006  -0.100  -0.002  0.00  0.00    +0.000 S 
ATOM      2 SE   UNL     1       3.020  -0.100  -0.002  0.00  0.00    +0.000 Se
ATOM      3  S   UNL     1       3.691  -1.459   1.323  0.00  0.00    +0.000 S 
ENDROOT
TORSDOF 0
