REMARK  Name = Selegiline
REMARK  7 active torsions:
REMARK  status: ('A' for Active; 'I' for Inactive)
REMARK    1  A    between atoms: C_1  and  C_2
REMARK    2  A    between atoms: C_2  and  C_3
REMARK    3  A    between atoms: C_2  and  N_10
REMARK    4  A    between atoms: C_3  and  C_4
REMARK    5  A    between atoms: N_10  and  C_11
REMARK    6  A    between atoms: N_10  and  C_12
REMARK    7  A    between atoms: C_12  and  C_13
REMARK                            x       y       z     vdW  Elec       q    Type
REMARK                         _______ _______ _______ _____ _____    ______ ____
ROOT
ATOM      1  C   UNL     1       3.068  -1.442   0.109  0.00  0.00    +0.000 C 
ATOM      2  C   UNL     1       2.590   0.005  -0.131  0.00  0.00    +0.000 C 
ENDROOT
BRANCH   2   3
ATOM      3  N   UNL     1       3.076   0.595  -1.390  0.00  0.00    +0.000 NA
ATOM      4  C   UNL     1       2.614   1.999  -1.526  0.00  0.00    +0.000 C 
BRANCH   3   5
ATOM      5  C   UNL     1       4.543   0.587  -1.339  0.00  0.00    +0.000 C 
BRANCH   5   6
ATOM      6  C   UNL     1       5.050   1.151  -2.657  0.00  0.00    +0.000 C 
ATOM      7  C   UNL     1       5.485   1.634  -3.787  0.00  0.00    +0.000 C 
ENDBRANCH   5   6
ENDBRANCH   3   5
ENDBRANCH   2   3
BRANCH   2   8
ATOM      8  C   UNL     1       1.052   0.025  -0.004  0.00  0.00    +0.000 C 
BRANCH   8   9
ATOM      9  C   UNL     1       0.541   0.536   1.324  0.00  0.00    +0.000 A 
ATOM     10  C   UNL     1       1.371   0.817   2.423  0.00  0.00    +0.000 A 
ATOM     11  C   UNL     1       0.829   1.082   3.675  0.00  0.00    +0.000 A 
ATOM     12  C   UNL     1      -0.544   1.142   3.829  0.00  0.00    +0.000 A 
ATOM     13  C   UNL     1      -1.384   0.947   2.732  0.00  0.00    +0.000 A 
ATOM     14  C   UNL     1      -0.841   0.644   1.484  0.00  0.00    +0.000 A 
ENDBRANCH   8   9
ENDBRANCH   2   8
TORSDOF 5
