REMARK  Name = Selenious acid
REMARK  2 active torsions:
REMARK  status: ('A' for Active; 'I' for Inactive)
REMARK    1  A    between atoms: O_1  and  SE_2
REMARK    2  A    between atoms: SE_2  and  O_3
REMARK                            x       y       z     vdW  Elec       q    Type
REMARK                         _______ _______ _______ _____ _____    ______ ____
ROOT
ATOM      1 SE   UNL     1       2.796  -0.049  -0.060  0.00  0.00    +0.000 Se
ATOM      2  O   UNL     1       3.351   0.484  -1.536  0.00  0.00    +0.000 OA
ENDROOT
BRANCH   1   3
ATOM      3  O   UNL     1       0.936  -0.049  -0.060  0.00  0.00    +0.000 OA
ATOM      4  H   UNL     1       0.613  -0.359   0.801  0.00  0.00    +0.000 HD
ENDBRANCH   1   3
BRANCH   1   5
ATOM      5  O   UNL     1       3.416  -1.775   0.249  0.00  0.00    +0.000 OA
ATOM      6  H   UNL     1       3.093  -2.086   1.109  0.00  0.00    +0.000 HD
ENDBRANCH   1   5
TORSDOF 2
