REMARK  Name = Selexipag
REMARK  14 active torsions:
REMARK  status: ('A' for Active; 'I' for Inactive)
REMARK    1  A    between atoms: C_1  and  C_2
REMARK    2  A    between atoms: C_2  and  C_3
REMARK    3  A    between atoms: C_2  and  N_4
REMARK    4  A    between atoms: N_4  and  C_5
REMARK    5  A    between atoms: C_5  and  C_6
REMARK    6  A    between atoms: C_6  and  C_7
REMARK    7  A    between atoms: C_7  and  C_8
REMARK    8  A    between atoms: C_8  and  O_9
REMARK    9  A    between atoms: O_9  and  C_10
REMARK   10  A    between atoms: C_10  and  C_11
REMARK   11  A    between atoms: N_13  and  S_14
REMARK   12  A    between atoms: S_14  and  C_15
REMARK   13  A    between atoms: C_20  and  C_21
REMARK   14  A    between atoms: C_27  and  C_30
REMARK                            x       y       z     vdW  Elec       q    Type
REMARK                         _______ _______ _______ _____ _____    ______ ____
ROOT
ATOM      1  N   UNL     1       2.910   0.451  -1.338  0.00  0.00    +0.000 N 
ATOM      2  C   UNL     1       4.299   0.560  -1.590  0.00  0.00    +0.000 A 
ATOM      3  N   UNL     1       5.140  -0.445  -1.242  0.00  0.00    +0.000 NA
ATOM      4  C   UNL     1       6.477  -0.304  -1.477  0.00  0.00    +0.000 A 
ATOM      5  C   UNL     1       6.986   0.850  -2.102  0.00  0.00    +0.000 A 
ATOM      6  N   UNL     1       6.179   1.878  -2.454  0.00  0.00    +0.000 NA
ATOM      7  C   UNL     1       4.856   1.696  -2.192  0.00  0.00    +0.000 A 
ENDROOT
BRANCH   4   8
ATOM      8  C   UNL     1       7.359  -1.424  -1.061  0.00  0.00    +0.000 A 
ATOM      9  C   UNL     1       8.459  -1.202  -0.205  0.00  0.00    +0.000 A 
ATOM     10  C   UNL     1       9.475  -2.153  -0.063  0.00  0.00    +0.000 A 
ATOM     11  C   UNL     1       9.351  -3.395  -0.674  0.00  0.00    +0.000 A 
ATOM     12  C   UNL     1       8.239  -3.665  -1.470  0.00  0.00    +0.000 A 
ATOM     13  C   UNL     1       7.255  -2.686  -1.668  0.00  0.00    +0.000 A 
ENDBRANCH   4   8
BRANCH   5  14
ATOM     14  C   UNL     1       8.420   1.034  -2.367  0.00  0.00    +0.000 A 
ATOM     15  C   UNL     1       9.141   0.099  -3.133  0.00  0.00    +0.000 A 
ATOM     16  C   UNL     1      10.534   0.109  -3.145  0.00  0.00    +0.000 A 
ATOM     17  C   UNL     1      11.224   1.126  -2.491  0.00  0.00    +0.000 A 
ATOM     18  C   UNL     1      10.524   2.098  -1.776  0.00  0.00    +0.000 A 
ATOM     19  C   UNL     1       9.132   2.047  -1.707  0.00  0.00    +0.000 A 
ENDBRANCH   5  14
BRANCH   1  21
ATOM     20  C   UNL     1       1.027  -0.171   0.358  0.00  0.00    +0.000 C 
ATOM     21  C   UNL     1       2.519  -0.111  -0.004  0.00  0.00    +0.000 C 
ATOM     22  C   UNL     1       2.994  -1.550   0.200  0.00  0.00    +0.000 C 
ENDBRANCH   1  21
BRANCH   1  23
ATOM     23  C   UNL     1       2.033   0.890  -2.453  0.00  0.00    +0.000 C 
BRANCH  23  24
ATOM     24  C   UNL     1       0.557   0.772  -2.172  0.00  0.00    +0.000 C 
BRANCH  24  25
ATOM     25  C   UNL     1      -0.479   1.176  -3.179  0.00  0.00    +0.000 C 
BRANCH  25  26
ATOM     26  C   UNL     1      -1.852   0.922  -2.531  0.00  0.00    +0.000 C 
BRANCH  26  27
ATOM     27  O   UNL     1      -2.832   1.300  -3.473  0.00  0.00    +0.000 OA
BRANCH  27  28
ATOM     28  C   UNL     1      -4.171   1.112  -3.027  0.00  0.00    +0.000 C 
BRANCH  28  29
ATOM     29  C   UNL     1      -5.107   1.574  -4.153  0.00  0.00    +0.000 C 
ATOM     30  O   UNL     1      -4.691   2.020  -5.212  0.00  0.00    +0.000 OA
ATOM     31  N   UNL     1      -6.490   1.522  -3.888  0.00  0.00    +0.000 N 
ATOM     32  H   UNL     1      -6.876   1.157  -3.023  0.00  0.00    +0.000 HD
BRANCH  31  33
ATOM     33  S   UNL     1      -7.636   1.864  -5.053  0.00  0.00    +0.000 S 
ATOM     34  C   UNL     1      -7.382   3.600  -5.410  0.00  0.00    +0.000 C 
ATOM     35  O   UNL     1      -7.362   1.077  -6.227  0.00  0.00    +0.000 OA
ATOM     36  O   UNL     1      -8.913   1.744  -4.368  0.00  0.00    +0.000 OA
ENDBRANCH  31  33
ENDBRANCH  28  29
ENDBRANCH  27  28
ENDBRANCH  26  27
ENDBRANCH  25  26
ENDBRANCH  24  25
ENDBRANCH  23  24
ENDBRANCH   1  23
TORSDOF 11
