REMARK  Name = Selenic acid
REMARK  2 active torsions:
REMARK  status: ('A' for Active; 'I' for Inactive)
REMARK    1  A    between atoms: O_1  and  SE_2
REMARK    2  A    between atoms: SE_2  and  O_3
REMARK                            x       y       z     vdW  Elec       q    Type
REMARK                         _______ _______ _______ _____ _____    ______ ____
ROOT
ATOM      1 SE   UNL     1       2.782   0.040   0.047  0.00  0.00    +0.000 Se
ATOM      2  O   UNL     1       3.336  -0.906  -1.205  0.00  0.00    +0.000 OA
ATOM      3  O   UNL     1       3.336   1.598  -0.146  0.00  0.00    +0.000 OA
ENDROOT
BRANCH   1   4
ATOM      4  O   UNL     1       0.922   0.040   0.047  0.00  0.00    +0.000 OA
ATOM      5  H   UNL     1       0.598  -0.867   0.160  0.00  0.00    +0.000 HD
ENDBRANCH   1   4
BRANCH   1   6
ATOM      6  O   UNL     1       3.402  -0.643   1.662  0.00  0.00    +0.000 OA
ATOM      7  H   UNL     1       3.078  -1.550   1.775  0.00  0.00    +0.000 HD
ENDBRANCH   1   6
TORSDOF 2
