REMARK  Name = Selenomethionine Se-75
REMARK  7 active torsions:
REMARK  status: ('A' for Active; 'I' for Inactive)
REMARK    1  A    between atoms: C_1  and  SE_2
REMARK    2  A    between atoms: SE_2  and  C_3
REMARK    3  A    between atoms: C_3  and  C_4
REMARK    4  A    between atoms: C_4  and  CA_5
REMARK    5  A    between atoms: CA_5  and  N_6
REMARK    6  A    between atoms: CA_5  and  C_7
REMARK    7  A    between atoms: C_7  and  O_8
REMARK                            x       y       z     vdW  Elec       q    Type
REMARK                         _______ _______ _______ _____ _____    ______ ____
ROOT
ATOM      1  CA  UNL     1       5.544  -3.235  -0.425  0.00  0.00    +0.000 C 
ENDROOT
BRANCH   1   2
ATOM      2  N   UNL     1       5.054  -1.860  -0.253  0.00  0.00    +0.000 NA
ATOM      3  H1  UNL     1       5.394  -1.279  -1.020  0.00  0.00    +0.000 HD
ATOM      4  H2  UNL     1       5.394  -1.486   0.633  0.00  0.00    +0.000 HD
ENDBRANCH   1   2
BRANCH   1   5
ATOM      5  C   UNL     1       7.064  -3.235  -0.425  0.00  0.00    +0.000 C 
ATOM      6  OXT UNL     1       7.699  -4.327  -0.562  0.00  0.00    +0.000 OA
BRANCH   5   7
ATOM      7  O   UNL     1       7.774  -2.015  -0.273  0.00  0.00    +0.000 OA
ATOM      8  H   UNL     1       7.305  -1.209  -0.172  0.00  0.00    +0.000 HD
ENDBRANCH   5   7
ENDBRANCH   1   5
BRANCH   1   9
ATOM      9  C   UNL     1       5.037  -3.792  -1.746  0.00  0.00    +0.000 C 
BRANCH   9  10
ATOM     10  C   UNL     1       5.174  -5.305  -1.712  0.00  0.00    +0.000 C 
BRANCH  10  12
ATOM     11  C   UNL     1       4.875  -7.995  -3.420  0.00  0.00    +0.000 C 
ATOM     12 SE   UNL     1       4.698  -6.044  -3.464  0.00  0.00    +0.000 Se
ENDBRANCH  10  12
ENDBRANCH   9  10
ENDBRANCH   1   9
TORSDOF 6
