REMARK  Name = Selinexor
REMARK  6 active torsions:
REMARK  status: ('A' for Active; 'I' for Inactive)
REMARK    1  A    between atoms: C_2  and  C_5
REMARK    2  A    between atoms: C_7  and  C_28
REMARK    3  A    between atoms: C_9  and  C_11
REMARK    4  A    between atoms: N_13  and  C_14
REMARK    5  A    between atoms: C_15  and  C_16
REMARK    6  A    between atoms: N_18  and  N_19
REMARK                            x       y       z     vdW  Elec       q    Type
REMARK                         _______ _______ _______ _____ _____    ______ ____
ROOT
ATOM      1  C   UNL     1       2.471   4.496  -1.580  0.00  0.00    +0.000 A 
ATOM      2  N   UNL     1       2.627   5.306  -0.526  0.00  0.00    +0.000 NA
ATOM      3  N   UNL     1       1.995   6.456  -0.940  0.00  0.00    +0.000 N 
ATOM      4  C   UNL     1       1.480   6.151  -2.180  0.00  0.00    +0.000 A 
ATOM      5  N   UNL     1       1.782   4.971  -2.612  0.00  0.00    +0.000 NA
ENDROOT
BRANCH   1  10
ATOM      6  C   UNL     1       2.865   0.878  -1.022  0.00  0.00    +0.000 A 
ATOM      7  C   UNL     1       3.731   0.551  -2.080  0.00  0.00    +0.000 A 
ATOM      8  C   UNL     1       4.200   1.544  -2.959  0.00  0.00    +0.000 A 
ATOM      9  C   UNL     1       3.706   2.835  -2.833  0.00  0.00    +0.000 A 
ATOM     10  C   UNL     1       2.916   3.158  -1.732  0.00  0.00    +0.000 A 
ATOM     11  C   UNL     1       2.458   2.195  -0.857  0.00  0.00    +0.000 A 
BRANCH   6  13
ATOM     12  F   UNL     1       1.054  -0.161   0.105  0.00  0.00    +0.000 F 
ATOM     13  C   UNL     1       2.410  -0.097   0.019  0.00  0.00    +0.000 C 
ATOM     14  F   UNL     1       2.846   0.260   1.260  0.00  0.00    +0.000 F 
ATOM     15  F   UNL     1       2.847  -1.365  -0.189  0.00  0.00    +0.000 F 
ENDBRANCH   6  13
BRANCH   8  16
ATOM     16  C   UNL     1       5.334   1.283  -3.910  0.00  0.00    +0.000 C 
ATOM     17  F   UNL     1       6.454   0.896  -3.236  0.00  0.00    +0.000 F 
ATOM     18  F   UNL     1       5.069   0.303  -4.809  0.00  0.00    +0.000 F 
ATOM     19  F   UNL     1       5.704   2.379  -4.631  0.00  0.00    +0.000 F 
ENDBRANCH   8  16
ENDBRANCH   1  10
BRANCH   3  20
ATOM     20  C   UNL     1       1.937   7.645  -0.172  0.00  0.00    +0.000 C 
ATOM     21  C   UNL     1       1.378   8.855  -0.415  0.00  0.00    +0.000 C 
BRANCH  21  22
ATOM     22  C   UNL     1       0.647   9.222  -1.645  0.00  0.00    +0.000 C 
ATOM     23  O   UNL     1       0.445   8.427  -2.564  0.00  0.00    +0.000 OA
ATOM     24  N   UNL     1       0.112  10.444  -1.867  0.00  0.00    +0.000 N 
ATOM     25  H   UNL     1       0.045  11.234  -1.237  0.00  0.00    +0.000 HD
BRANCH  24  26
ATOM     26  N   UNL     1      -0.820  10.381  -2.937  0.00  0.00    +0.000 N 
ATOM     27  C   UNL     1      -1.263  11.579  -3.482  0.00  0.00    +0.000 A 
ATOM     28  N   UNL     1      -0.601  12.729  -3.237  0.00  0.00    +0.000 NA
ATOM     29  C   UNL     1      -1.218  13.851  -3.662  0.00  0.00    +0.000 A 
ATOM     30  C   UNL     1      -2.468  13.840  -4.260  0.00  0.00    +0.000 A 
ATOM     31  N   UNL     1      -3.137  12.699  -4.526  0.00  0.00    +0.000 NA
ATOM     32  C   UNL     1      -2.495  11.573  -4.144  0.00  0.00    +0.000 A 
ATOM     33  H   UNL     1      -0.591   9.644  -3.623  0.00  0.00    +0.000 HD
ENDBRANCH  24  26
ENDBRANCH  21  22
ENDBRANCH   3  20
TORSDOF 6
