REMARK  Name = Selumetinib
REMARK  8 active torsions:
REMARK  status: ('A' for Active; 'I' for Inactive)
REMARK    1  A    between atoms: C_1  and  N_2
REMARK    2  A    between atoms: C_8  and  N_9
REMARK    3  A    between atoms: N_9  and  C_10
REMARK    4  A    between atoms: C_18  and  C_21
REMARK    5  A    between atoms: N_23  and  O_24
REMARK    6  A    between atoms: O_24  and  C_25
REMARK    7  A    between atoms: C_25  and  C_26
REMARK    8  A    between atoms: C_26  and  O_27
REMARK                            x       y       z     vdW  Elec       q    Type
REMARK                         _______ _______ _______ _____ _____    ______ ____
ROOT
ATOM      1  C   UNL     1       0.989   0.118   0.065  0.00  0.00    +0.000 C 
ATOM      2  N   UNL     1       2.433   0.135   0.065  0.00  0.00    +0.000 N 
ATOM      3  C   UNL     1       3.260   1.215   0.072  0.00  0.00    +0.000 A 
ATOM      4  N   UNL     1       4.529   0.855   0.086  0.00  0.00    +0.000 NA
ATOM      5  C   UNL     1       4.533  -0.529   0.059  0.00  0.00    +0.000 A 
ATOM      6  C   UNL     1       5.589  -1.483   0.038  0.00  0.00    +0.000 A 
ATOM      7  F   UNL     1       6.869  -1.073   0.086  0.00  0.00    +0.000 F 
ATOM      8  C   UNL     1       5.307  -2.876  -0.004  0.00  0.00    +0.000 A 
ATOM      9  C   UNL     1       3.911  -3.236  -0.001  0.00  0.00    +0.000 A 
ATOM     10  C   UNL     1       2.866  -2.312   0.018  0.00  0.00    +0.000 A 
ATOM     11  C   UNL     1       3.219  -0.982   0.043  0.00  0.00    +0.000 A 
ENDROOT
BRANCH   9  12
ATOM     12  C   UNL     1       3.412  -4.607   0.226  0.00  0.00    +0.000 C 
ATOM     13  O   UNL     1       2.273  -4.992  -0.116  0.00  0.00    +0.000 OA
ATOM     14  N   UNL     1       4.297  -5.305   0.970  0.00  0.00    +0.000 N 
ATOM     15  H   UNL     1       5.053  -4.657   1.156  0.00  0.00    +0.000 HD
BRANCH  14  16
ATOM     16  O   UNL     1       4.824  -6.436   0.149  0.00  0.00    +0.000 OA
BRANCH  16  17
ATOM     17  C   UNL     1       6.333  -7.686  -0.073  0.00  0.00    +0.000 C 
BRANCH  17  18
ATOM     18  C   UNL     1       6.142  -9.313  -0.002  0.00  0.00    +0.000 C 
BRANCH  18  19
ATOM     19  O   UNL     1       7.350 -10.037  -0.033  0.00  0.00    +0.000 OA
ATOM     20  H   UNL     1       7.583 -10.069  -0.971  0.00  0.00    +0.000 HD
ENDBRANCH  18  19
ENDBRANCH  17  18
ENDBRANCH  16  17
ENDBRANCH  14  16
ENDBRANCH   9  12
BRANCH   8  21
ATOM     21  N   UNL     1       6.430  -3.827  -0.101  0.00  0.00    +0.000 N 
ATOM     22  H   UNL     1       7.303  -3.438   0.264  0.00  0.00    +0.000 HD
BRANCH  21  23
ATOM     23  C   UNL     1       6.444  -5.364  -0.180  0.00  0.00    +0.000 A 
ATOM     24  C   UNL     1       5.500  -6.019  -1.581  0.00  0.00    +0.000 A 
ATOM     25 CL   UNL     1       5.038  -4.875  -2.817  0.00  0.00    +0.000 Cl
ATOM     26  C   UNL     1       4.407  -7.446  -1.385  0.00  0.00    +0.000 A 
ATOM     27  C   UNL     1       4.097  -8.149   0.269  0.00  0.00    +0.000 A 
ATOM     28 BR   UNL     1       3.120  -9.843   0.314  0.00  0.00    +0.000 Br
ATOM     29  C   UNL     1       5.092  -7.534   1.697  0.00  0.00    +0.000 A 
ATOM     30  C   UNL     1       6.302  -6.163   1.465  0.00  0.00    +0.000 A 
ENDBRANCH  21  23
ENDBRANCH   8  21
TORSDOF 7
