REMARK  Name = Serdexmethylphenidate
REMARK  13 active torsions:
REMARK  status: ('A' for Active; 'I' for Inactive)
REMARK    1  A    between atoms: C_2  and  C_27
REMARK    2  A    between atoms: C_8  and  O_10
REMARK    3  A    between atoms: O_10  and  C_11
REMARK    4  A    between atoms: C_11  and  N_12
REMARK    5  A    between atoms: C_16  and  C_18
REMARK    6  A    between atoms: N_20  and  CA_21
REMARK    7  A    between atoms: CA_21  and  CB_22
REMARK    8  A    between atoms: CA_21  and  C_24
REMARK    9  A    between atoms: CB_22  and  OG_23
REMARK   10  A    between atoms: C_27  and  C_28
REMARK   11  A    between atoms: C_27  and  C_32
REMARK   12  A    between atoms: C_28  and  O_30
REMARK   13  A    between atoms: O_30  and  C_31
REMARK                            x       y       z     vdW  Elec       q    Type
REMARK                         _______ _______ _______ _____ _____    ______ ____
ROOT
ATOM      1  C   UNK A   0       2.224   1.311  -2.010  0.00  0.00    +0.000 C 
ATOM      2  C   UNK A   0       0.704   1.554  -2.046  0.00  0.00    +0.000 C 
ATOM      3  C   UNK A   0       0.131   1.620  -0.645  0.00  0.00    +0.000 C 
ATOM      4  C   UNK A   0       1.017   2.532   0.290  0.00  0.00    +0.000 C 
ATOM      5  C   UNK A   0       2.568   2.479   0.120  0.00  0.00    +0.000 C 
ATOM      6  N   UNK A   0       2.861   2.481  -1.287  0.00  0.00    +0.000 N 
ATOM      7  C   UNK A   0       3.739   3.416  -1.804  0.00  0.00    +0.000 C 
ATOM      8  O   UNK A   0       3.977   3.608  -2.991  0.00  0.00    +0.000 OA
ENDROOT
BRANCH   7   9
ATOM      9  O   UNK A   0       4.417   4.082  -0.824  0.00  0.00    +0.000 OA
BRANCH   9  10
ATOM     10  C   UNK A   0       5.389   5.001  -1.300  0.00  0.00    +0.000 C 
BRANCH  10  11
ATOM     11  N   UNK A   0       5.988   5.751  -0.153  0.00  0.00    +0.000 N 
ATOM     12  C   UNK A   0       7.307   6.065  -0.174  0.00  0.00    +0.000 A 
ATOM     13  C   UNK A   0       7.896   6.739   0.888  0.00  0.00    +0.000 A 
ATOM     14  C   UNK A   0       7.148   6.968   2.032  0.00  0.00    +0.000 A 
ATOM     15  C   UNK A   0       5.793   6.623   2.062  0.00  0.00    +0.000 A 
ATOM     16  C   UNK A   0       5.212   6.099   0.911  0.00  0.00    +0.000 A 
BRANCH  15  17
ATOM     17  C   UNK A   0       5.072   6.764   3.349  0.00  0.00    +0.000 C 
ATOM     18  O   UNK A   0       5.735   7.026   4.349  0.00  0.00    +0.000 OA
ATOM     19  N   SER A   1       3.725   6.545   3.372  0.00  0.00    +0.000 N 
ATOM     20  H   SER A   1       3.141   6.201   2.613  0.00  0.00    +0.000 HD
BRANCH  19  21
ATOM     21  CA  SER A   1       2.889   6.694   4.592  0.00  0.00    +0.000 C 
BRANCH  21  22
ATOM     22  C   SER A   1       1.415   6.258   4.308  0.00  0.00    +0.000 C 
ATOM     23  O   SER A   1       1.241   5.860   3.108  0.00  0.00    +0.000 OA
ATOM     24  OXT SER A   1       0.608   6.328   5.270  0.00  0.00    +0.000 OA
ENDBRANCH  21  22
BRANCH  21  25
ATOM     25  CB  SER A   1       2.816   8.148   5.080  0.00  0.00    +0.000 C 
BRANCH  25  26
ATOM     26  OG  SER A   1       4.084   8.698   5.459  0.00  0.00    +0.000 OA
ATOM     27  H   SER A   1       4.630   7.956   5.785  0.00  0.00    +0.000 HD
ENDBRANCH  25  26
ENDBRANCH  21  25
ENDBRANCH  19  21
ENDBRANCH  15  17
ENDBRANCH  10  11
ENDBRANCH   9  10
ENDBRANCH   7   9
BRANCH   1  28
ATOM     28  C   UNK A   0       2.702  -0.165  -1.413  0.00  0.00    +0.000 C 
BRANCH  28  29
ATOM     29  C   UNK A   0       4.247  -0.223  -1.469  0.00  0.00    +0.000 A 
ATOM     30  C   UNK A   0       4.948  -1.185  -0.754  0.00  0.00    +0.000 A 
ATOM     31  C   UNK A   0       6.321  -1.039  -0.534  0.00  0.00    +0.000 A 
ATOM     32  C   UNK A   0       7.037   0.015  -1.100  0.00  0.00    +0.000 A 
ATOM     33  C   UNK A   0       6.394   0.872  -1.970  0.00  0.00    +0.000 A 
ATOM     34  C   UNK A   0       5.028   0.712  -2.177  0.00  0.00    +0.000 A 
ENDBRANCH  28  29
BRANCH  28  35
ATOM     35  C   UNK A   0       2.158  -0.494   0.061  0.00  0.00    +0.000 C 
ATOM     36  O   UNK A   0       1.724   0.333   0.821  0.00  0.00    +0.000 OA
BRANCH  35  37
ATOM     37  O   UNK A   0       2.197  -1.748   0.593  0.00  0.00    +0.000 OA
ATOM     38  C   UNK A   0       1.691  -1.634   1.974  0.00  0.00    +0.000 C 
ENDBRANCH  35  37
ENDBRANCH  28  35
ENDBRANCH   1  28
TORSDOF 12
