REMARK  Name = Sertraline
REMARK  3 active torsions:
REMARK  status: ('A' for Active; 'I' for Inactive)
REMARK    1  A    between atoms: C_1  and  N_2
REMARK    2  A    between atoms: N_2  and  C_3
REMARK    3  A    between atoms: C_6  and  C_7
REMARK                            x       y       z     vdW  Elec       q    Type
REMARK                         _______ _______ _______ _____ _____    ______ ____
ROOT
ATOM      1  C   UNL     1       2.873  -1.296  -0.180  0.00  0.00    +0.000 C 
ATOM      2  C   UNL     1       2.291  -2.487  -0.820  0.00  0.00    +0.000 C 
ATOM      3  C   UNL     1       2.030  -3.870  -0.404  0.00  0.00    +0.000 C 
ATOM      4  C   UNL     1       3.090  -4.299   0.596  0.00  0.00    +0.000 C 
ATOM      5  C   UNL     1       3.343  -3.190   1.590  0.00  0.00    +0.000 A 
ATOM      6  C   UNL     1       3.524  -3.635   2.924  0.00  0.00    +0.000 A 
ATOM      7  C   UNL     1       3.663  -2.758   3.947  0.00  0.00    +0.000 A 
ATOM      8  C   UNL     1       3.640  -1.381   3.667  0.00  0.00    +0.000 A 
ATOM      9  C   UNL     1       3.512  -0.917   2.324  0.00  0.00    +0.000 A 
ATOM     10  C   UNL     1       3.380  -1.785   1.232  0.00  0.00    +0.000 A 
ENDROOT
BRANCH   4  11
ATOM     11  C   UNL     1       4.423  -4.840   0.056  0.00  0.00    +0.000 A 
ATOM     12  C   UNL     1       5.476  -4.004  -0.386  0.00  0.00    +0.000 A 
ATOM     13  C   UNL     1       6.697  -4.537  -0.823  0.00  0.00    +0.000 A 
ATOM     14 CL   UNL     1       7.909  -3.433  -1.377  0.00  0.00    +0.000 Cl
ATOM     15  C   UNL     1       6.897  -5.913  -0.794  0.00  0.00    +0.000 A 
ATOM     16 CL   UNL     1       8.371  -6.651  -1.312  0.00  0.00    +0.000 Cl
ATOM     17  C   UNL     1       5.881  -6.752  -0.321  0.00  0.00    +0.000 A 
ATOM     18  C   UNL     1       4.656  -6.217   0.092  0.00  0.00    +0.000 A 
ENDBRANCH   4  11
BRANCH   1  20
ATOM     19  C   UNL     1       3.559  -1.672  -2.810  0.00  0.00    +0.000 C 
ATOM     20  N   UNL     1       3.657  -0.776  -1.489  0.00  0.00    +0.000 NA
ATOM     21  H   UNL     1       3.083   0.023  -1.792  0.00  0.00    +0.000 HD
ENDBRANCH   1  20
TORSDOF 2
