REMARK  Name = Sertindole
REMARK  5 active torsions:
REMARK  status: ('A' for Active; 'I' for Inactive)
REMARK    1  A    between atoms: C_5  and  N_8
REMARK    2  A    between atoms: C_10  and  C_11
REMARK    3  A    between atoms: N_14  and  C_15
REMARK    4  A    between atoms: C_15  and  C_16
REMARK    5  A    between atoms: C_16  and  N_17
REMARK                            x       y       z     vdW  Elec       q    Type
REMARK                         _______ _______ _______ _____ _____    ______ ____
ROOT
ATOM      1  N   UNL     1      -3.351   0.072  -0.116  0.00  0.00    +0.000 N 
ATOM      2  C   UNL     1      -4.099  -0.496   0.862  0.00  0.00    +0.000 A 
ATOM      3  C   UNL     1      -5.445  -0.323   0.612  0.00  0.00    +0.000 A 
ATOM      4  C   UNL     1      -5.519   0.399  -0.605  0.00  0.00    +0.000 A 
ATOM      5  C   UNL     1      -4.205   0.659  -1.026  0.00  0.00    +0.000 A 
ATOM      6  C   UNL     1      -3.932   1.332  -2.218  0.00  0.00    +0.000 A 
ATOM      7  C   UNL     1      -5.020   1.764  -2.977  0.00  0.00    +0.000 A 
ATOM      8  C   UNL     1      -6.329   1.530  -2.565  0.00  0.00    +0.000 A 
ATOM      9 CL   UNL     1      -7.640   2.089  -3.529  0.00  0.00    +0.000 Cl
ATOM     10  C   UNL     1      -6.601   0.847  -1.384  0.00  0.00    +0.000 A 
ENDROOT
BRANCH   1  15
ATOM     11  F   UNL     1       2.156  -0.018   0.010  0.00  0.00    +0.000 F 
ATOM     12  C   UNL     1       0.817  -0.001  -0.001  0.00  0.00    +0.000 A 
ATOM     13  C   UNL     1       0.119  -1.204   0.014  0.00  0.00    +0.000 A 
ATOM     14  C   UNL     1      -1.275  -1.186  -0.007  0.00  0.00    +0.000 A 
ATOM     15  C   UNL     1      -1.943   0.047  -0.095  0.00  0.00    +0.000 A 
ATOM     16  C   UNL     1      -1.241   1.253  -0.077  0.00  0.00    +0.000 A 
ATOM     17  C   UNL     1       0.151   1.222  -0.027  0.00  0.00    +0.000 A 
ENDBRANCH   1  15
BRANCH   3  18
ATOM     18  C   UNL     1      -6.601  -0.819   1.449  0.00  0.00    +0.000 C 
ATOM     19  C   UNL     1      -6.604  -0.177   2.840  0.00  0.00    +0.000 C 
ATOM     20  C   UNL     1      -5.419  -0.651   3.666  0.00  0.00    +0.000 C 
ATOM     21  N   UNL     1      -5.361  -2.122   3.714  0.00  0.00    +0.000 NA
ATOM     22  C   UNL     1      -5.384  -2.792   2.404  0.00  0.00    +0.000 C 
ATOM     23  C   UNL     1      -6.558  -2.342   1.557  0.00  0.00    +0.000 C 
BRANCH  21  24
ATOM     24  C   UNL     1      -4.166  -2.511   4.457  0.00  0.00    +0.000 C 
BRANCH  24  25
ATOM     25  C   UNL     1      -4.056  -4.020   4.643  0.00  0.00    +0.000 C 
BRANCH  25  26
ATOM     26  N   UNL     1      -2.929  -4.415   5.437  0.00  0.00    +0.000 N 
ATOM     27  C   UNL     1      -1.971  -3.520   6.049  0.00  0.00    +0.000 C 
ATOM     28  C   UNL     1      -1.412  -4.406   7.143  0.00  0.00    +0.000 C 
ATOM     29  N   UNL     1      -1.536  -5.722   6.572  0.00  0.00    +0.000 N 
ATOM     30  C   UNL     1      -2.579  -5.737   5.658  0.00  0.00    +0.000 C 
ATOM     31  O   UNL     1      -3.089  -6.734   5.168  0.00  0.00    +0.000 OA
ATOM     32  H   UNL     1      -1.181  -6.588   6.951  0.00  0.00    +0.000 HD
ENDBRANCH  25  26
ENDBRANCH  24  25
ENDBRANCH  21  24
ENDBRANCH   3  18
TORSDOF 5
