REMARK  Name = Sertaconazole
REMARK  6 active torsions:
REMARK  status: ('A' for Active; 'I' for Inactive)
REMARK    1  A    between atoms: C_6  and  C_9
REMARK    2  A    between atoms: C_9  and  C_10
REMARK    3  A    between atoms: C_9  and  O_16
REMARK    4  A    between atoms: C_10  and  N_11
REMARK    5  A    between atoms: O_16  and  C_17
REMARK    6  A    between atoms: C_17  and  C_18
REMARK                            x       y       z     vdW  Elec       q    Type
REMARK                         _______ _______ _______ _____ _____    ______ ____
ROOT
ATOM      1  C   UNL     1       2.493  -2.355   0.019  0.00  0.00    +0.000 C 
ENDROOT
BRANCH   1   7
ATOM      2 CL   UNL     1      -2.719   0.795   0.075  0.00  0.00    +0.000 Cl
ATOM      3  C   UNL     1      -1.243  -0.082  -0.032  0.00  0.00    +0.000 A 
ATOM      4  C   UNL     1      -0.052   0.586  -0.257  0.00  0.00    +0.000 A 
ATOM      5  C   UNL     1       1.109  -0.167  -0.506  0.00  0.00    +0.000 A 
ATOM      6 CL   UNL     1       2.393   0.663  -1.325  0.00  0.00    +0.000 Cl
ATOM      7  C   UNL     1       1.177  -1.551  -0.199  0.00  0.00    +0.000 A 
ATOM      8  C   UNL     1      -0.052  -2.189  -0.006  0.00  0.00    +0.000 A 
ATOM      9  C   UNL     1      -1.254  -1.471   0.016  0.00  0.00    +0.000 A 
ENDBRANCH   1   7
BRANCH   1  10
ATOM     10  C   UNL     1       3.257  -1.835   1.315  0.00  0.00    +0.000 C 
BRANCH  10  11
ATOM     11  N   UNL     1       3.579  -0.418   1.484  0.00  0.00    +0.000 N 
ATOM     12  C   UNL     1       2.725   0.607   1.818  0.00  0.00    +0.000 A 
ATOM     13  C   UNL     1       3.435   1.761   1.562  0.00  0.00    +0.000 A 
ATOM     14  N   UNL     1       4.755   1.469   1.363  0.00  0.00    +0.000 NA
ATOM     15  C   UNL     1       4.822   0.154   1.376  0.00  0.00    +0.000 A 
ENDBRANCH  10  11
ENDBRANCH   1  10
BRANCH   1  16
ATOM     16  O   UNL     1       2.166  -3.891   0.156  0.00  0.00    +0.000 OA
BRANCH  16  17
ATOM     17  C   UNL     1       3.333  -4.802   0.173  0.00  0.00    +0.000 C 
BRANCH  17  18
ATOM     18  C   UNL     1       3.537  -6.523   0.605  0.00  0.00    +0.000 A 
ATOM     19  C   UNL     1       4.764  -6.891   0.043  0.00  0.00    +0.000 A 
ATOM     20  S   UNL     1       3.748  -7.776  -1.407  0.00  0.00    +0.000 S 
ATOM     21  C   UNL     1       1.973  -7.738  -0.207  0.00  0.00    +0.000 A 
ATOM     22  C   UNL     1       2.984  -8.053   0.689  0.00  0.00    +0.000 A 
ATOM     23  C   UNL     1       3.186  -9.653   0.681  0.00  0.00    +0.000 A 
ATOM     24  C   UNL     1       2.134 -10.404   0.085  0.00  0.00    +0.000 A 
ATOM     25  C   UNL     1       0.874  -9.943   0.201  0.00  0.00    +0.000 A 
ATOM     26  C   UNL     1       0.799  -8.589  -0.097  0.00  0.00    +0.000 A 
ATOM     27 CL   UNL     1      -0.783  -7.917   0.071  0.00  0.00    +0.000 Cl
ENDBRANCH  17  18
ENDBRANCH  16  17
ENDBRANCH   1  16
TORSDOF 6
