REMARK  Name = Sevelamer
REMARK  3 active torsions:
REMARK  status: ('A' for Active; 'I' for Inactive)
REMARK    1  A    between atoms: N_1  and  C_2
REMARK    2  A    between atoms: C_2  and  C_3
REMARK    3  A    between atoms: C_6  and  C_7
REMARK                            x       y       z     vdW  Elec       q    Type
REMARK                         _______ _______ _______ _____ _____    ______ ____
ROOT
ATOM      1  N   UNL     1       0.391   0.441   0.294  0.00  0.00    +0.000 NA
ATOM      2  H   UNL     1       0.426  -0.193   1.122  0.00  0.00    +0.000 HD
ATOM      3  H   UNL     1       0.410  -0.283  -0.436  0.00  0.00    +0.000 HD
ENDROOT
BRANCH   1   4
ATOM      4  C   UNL     1       1.691   1.175   0.256  0.00  0.00    +0.000 C 
BRANCH   4   5
ATOM      5  C   UNL     1       2.504   1.638  -1.038  0.00  0.00    +0.000 C 
ATOM      6  C   UNL     1       3.861   1.650  -1.391  0.00  0.00    +0.000 C 
ENDBRANCH   4   5
ENDBRANCH   1   4
TORSDOF 2
REMARK  Name = Sevelamer
REMARK  3 active torsions:
REMARK  status: ('A' for Active; 'I' for Inactive)
REMARK    1  A    between atoms: N_1  and  C_2
REMARK    2  A    between atoms: C_2  and  C_3
REMARK    3  A    between atoms: C_6  and  C_7
REMARK                            x       y       z     vdW  Elec       q    Type
REMARK                         _______ _______ _______ _____ _____    ______ ____
ROOT
ATOM      1  C   UNL     2       3.768  -0.654   1.227  0.00  0.00    +0.000 C 
ATOM      2  C   UNL     2       5.153  -0.005   1.589  0.00  0.00    +0.000 C 
ATOM      3  O   UNL     2       4.010   0.822   1.393  0.00  0.00    +0.000 OA
ENDROOT
BRANCH   1   5
ATOM      4 CL   UNL     2       2.072  -1.427  -1.214  0.00  0.00    +0.000 Cl
ATOM      5  C   UNL     2       3.609  -1.186  -0.277  0.00  0.00    +0.000 C 
ENDBRANCH   1   5
TORSDOF 1
