REMARK  Name = Sevoflurane
REMARK  4 active torsions:
REMARK  status: ('A' for Active; 'I' for Inactive)
REMARK    1  A    between atoms: C_2  and  O_3
REMARK    2  A    between atoms: O_3  and  C_4
REMARK    3  A    between atoms: C_4  and  C_5
REMARK    4  A    between atoms: C_4  and  C_9
REMARK                            x       y       z     vdW  Elec       q    Type
REMARK                         _______ _______ _______ _____ _____    ______ ____
ROOT
ATOM      1  C   UNL     1       4.166  -0.197   1.247  0.00  0.00    +0.000 C 
ENDROOT
BRANCH   1   2
ATOM      2  C   UNL     1       4.779   1.105   0.773  0.00  0.00    +0.000 C 
ATOM      3  F   UNL     1       4.316   2.175   1.444  0.00  0.00    +0.000 F 
ATOM      4  F   UNL     1       6.126   1.104   0.856  0.00  0.00    +0.000 F 
ATOM      5  F   UNL     1       4.491   1.302  -0.540  0.00  0.00    +0.000 F 
ENDBRANCH   1   2
BRANCH   1   6
ATOM      6  C   UNL     1       4.662  -0.388   2.666  0.00  0.00    +0.000 C 
ATOM      7  F   UNL     1       4.258   0.589   3.500  0.00  0.00    +0.000 F 
ATOM      8  F   UNL     1       4.216  -1.565   3.172  0.00  0.00    +0.000 F 
ATOM      9  F   UNL     1       6.012  -0.445   2.721  0.00  0.00    +0.000 F 
ENDBRANCH   1   6
BRANCH   1  10
ATOM     10  O   UNL     1       2.716  -0.223   1.212  0.00  0.00    +0.000 OA
BRANCH  10  12
ATOM     11  F   UNL     1       0.830  -0.247   0.036  0.00  0.00    +0.000 F 
ATOM     12  C   UNL     1       2.171  -0.092  -0.091  0.00  0.00    +0.000 C 
ENDBRANCH  10  12
ENDBRANCH   1  10
TORSDOF 4
