REMARK  Name = Sibutramine
REMARK  9 active torsions:
REMARK  status: ('A' for Active; 'I' for Inactive)
REMARK    1  A    between atoms: C_1  and  C_2
REMARK    2  A    between atoms: C_2  and  C_3
REMARK    3  A    between atoms: C_2  and  C_4
REMARK    4  A    between atoms: C_4  and  C_5
REMARK    5  A    between atoms: C_5  and  N_6
REMARK    6  A    between atoms: C_5  and  C_9
REMARK    7  A    between atoms: N_6  and  C_7
REMARK    8  A    between atoms: N_6  and  C_8
REMARK    9  A    between atoms: C_9  and  C_13
REMARK                            x       y       z     vdW  Elec       q    Type
REMARK                         _______ _______ _______ _____ _____    ______ ____
ROOT
ATOM      1  C   UNL     1       5.081  -2.010   2.081  0.00  0.00    +0.000 C 
ATOM      2  C   UNL     1       3.984  -2.391   3.176  0.00  0.00    +0.000 C 
ATOM      3  C   UNL     1       4.474  -3.843   3.085  0.00  0.00    +0.000 C 
ATOM      4  C   UNL     1       4.912  -3.528   1.634  0.00  0.00    +0.000 C 
ENDROOT
BRANCH   1   5
ATOM      5  C   UNL     1       6.602  -1.725   2.639  0.00  0.00    +0.000 A 
ATOM      6  C   UNL     1       7.720  -1.817   1.764  0.00  0.00    +0.000 A 
ATOM      7  C   UNL     1       8.907  -1.112   2.037  0.00  0.00    +0.000 A 
ATOM      8  C   UNL     1       9.039  -0.412   3.237  0.00  0.00    +0.000 A 
ATOM      9 CL   UNL     1      10.359   0.676   3.449  0.00  0.00    +0.000 Cl
ATOM     10  C   UNL     1       8.001  -0.416   4.175  0.00  0.00    +0.000 A 
ATOM     11  C   UNL     1       6.803  -1.078   3.879  0.00  0.00    +0.000 A 
ENDBRANCH   1   5
BRANCH   1  12
ATOM     12  C   UNL     1       4.692  -0.885   0.986  0.00  0.00    +0.000 C 
BRANCH  12  13
ATOM     13  N   UNL     1       5.327   0.478   1.219  0.00  0.00    +0.000 NA
ATOM     14  C   UNL     1       6.740   0.752   1.203  0.00  0.00    +0.000 C 
ATOM     15  C   UNL     1       4.976   1.322   0.126  0.00  0.00    +0.000 C 
ENDBRANCH  12  13
BRANCH  12  16
ATOM     16  C   UNL     1       3.053  -0.767   0.888  0.00  0.00    +0.000 C 
BRANCH  16  18
ATOM     17  C   UNL     1       0.781  -0.211  -0.147  0.00  0.00    +0.000 C 
ATOM     18  C   UNL     1       2.268   0.139  -0.197  0.00  0.00    +0.000 C 
ATOM     19  C   UNL     1       2.165   1.719  -0.056  0.00  0.00    +0.000 C 
ENDBRANCH  16  18
ENDBRANCH  12  16
ENDBRANCH   1  12
TORSDOF 5
