REMARK  Name = Sildenafil
REMARK  11 active torsions:
REMARK  status: ('A' for Active; 'I' for Inactive)
REMARK    1  A    between atoms: C_1  and  C_2
REMARK    2  A    between atoms: C_2  and  C_3
REMARK    3  A    between atoms: C_3  and  C_4
REMARK    4  A    between atoms: N_6  and  C_7
REMARK    5  A    between atoms: C_11  and  C_15
REMARK    6  A    between atoms: C_17  and  S_24
REMARK    7  A    between atoms: C_20  and  O_21
REMARK    8  A    between atoms: O_21  and  C_22
REMARK    9  A    between atoms: C_22  and  C_23
REMARK   10  A    between atoms: S_24  and  N_27
REMARK   11  A    between atoms: N_30  and  C_31
REMARK                            x       y       z     vdW  Elec       q    Type
REMARK                         _______ _______ _______ _____ _____    ______ ____
ROOT
ATOM      1  C   UNL     1       5.786   4.031   1.475  0.00  0.00    +0.000 A 
ATOM      2  C   UNL     1       4.849   4.663   2.345  0.00  0.00    +0.000 A 
ATOM      3  C   UNL     1       4.329   5.855   1.942  0.00  0.00    +0.000 A 
ATOM      4  C   UNL     1       4.900   6.335   0.796  0.00  0.00    +0.000 A 
ATOM      5  C   UNL     1       5.896   5.822   0.007  0.00  0.00    +0.000 A 
ATOM      6  C   UNL     1       6.312   4.590   0.291  0.00  0.00    +0.000 A 
ENDROOT
BRANCH   1  14
ATOM      7  C   UNL     1       4.487  -0.585   1.382  0.00  0.00    +0.000 A 
ATOM      8  N   UNL     1       5.234  -1.704   1.354  0.00  0.00    +0.000 NA
ATOM      9  N   UNL     1       6.513  -1.244   1.417  0.00  0.00    +0.000 N 
ATOM     10  C   UNL     1       7.625  -2.159   1.421  0.00  0.00    +0.000 C 
ATOM     11  C   UNL     1       6.590   0.101   1.553  0.00  0.00    +0.000 A 
ATOM     12  C   UNL     1       5.303   0.533   1.469  0.00  0.00    +0.000 A 
ATOM     13  N   UNL     1       4.946   1.863   1.459  0.00  0.00    +0.000 NA
ATOM     14  C   UNL     1       5.957   2.627   1.712  0.00  0.00    +0.000 A 
ATOM     15  N   UNL     1       7.234   2.247   2.067  0.00  0.00    +0.000 N 
ATOM     16  C   UNL     1       7.670   0.982   1.764  0.00  0.00    +0.000 A 
ATOM     17  O   UNL     1       8.867   0.725   1.589  0.00  0.00    +0.000 OA
ATOM     18  H   UNL     1       7.952   2.960   2.096  0.00  0.00    +0.000 HD
BRANCH   7  19
ATOM     19  C   UNL     1       3.002  -0.577   1.356  0.00  0.00    +0.000 C 
BRANCH  19  21
ATOM     20  C   UNL     1       0.940  -0.091   0.008  0.00  0.00    +0.000 C 
ATOM     21  C   UNL     1       2.457  -0.107   0.007  0.00  0.00    +0.000 C 
ENDBRANCH  19  21
ENDBRANCH   7  19
ENDBRANCH   1  14
BRANCH   3  22
ATOM     22  S   UNL     1       3.037   6.752   2.803  0.00  0.00    +0.000 S 
ATOM     23  O   UNL     1       1.796   6.117   2.456  0.00  0.00    +0.000 OA
ATOM     24  O   UNL     1       3.491   6.809   4.189  0.00  0.00    +0.000 OA
BRANCH  22  25
ATOM     25  N   UNL     1       2.971   8.386   2.264  0.00  0.00    +0.000 NA
ATOM     26  C   UNL     1       2.346   8.785   0.952  0.00  0.00    +0.000 C 
ATOM     27  C   UNL     1       3.344   8.702  -0.206  0.00  0.00    +0.000 C 
ATOM     28  N   UNL     1       4.665   9.361   0.138  0.00  0.00    +0.000 NA
ATOM     29  C   UNL     1       5.671   9.114  -0.892  0.00  0.00    +0.000 C 
ATOM     30  C   UNL     1       5.204   9.151   1.532  0.00  0.00    +0.000 C 
ATOM     31  C   UNL     1       4.127   9.258   2.614  0.00  0.00    +0.000 C 
ENDBRANCH  22  25
ENDBRANCH   3  22
BRANCH   6  32
ATOM     32  O   UNL     1       7.111   4.203  -0.740  0.00  0.00    +0.000 OA
BRANCH  32  33
ATOM     33  C   UNL     1       7.558   2.892  -0.676  0.00  0.00    +0.000 C 
ATOM     34  C   UNL     1       8.494   2.504  -1.770  0.00  0.00    +0.000 C 
ENDBRANCH  32  33
ENDBRANCH   6  32
TORSDOF 7
