REMARK  Name = Silicon dioxide
REMARK  0 active torsions:
REMARK  status: ('A' for Active; 'I' for Inactive)
REMARK                            x       y       z     vdW  Elec       q    Type
REMARK                         _______ _______ _______ _____ _____    ______ ____
ROOT
ATOM      1  O   UNL     1       1.038  -0.063   0.053  0.00  0.00    +0.000 OA
ATOM      2 SI   UNL     1       2.512  -0.072   0.031  0.00  0.00    +0.000 Si
ATOM      3  O   UNL     1       3.026  -0.574  -1.257  0.00  0.00    +0.000 OA
ENDROOT
TORSDOF 0
