REMARK  Name = Silodosin
REMARK  16 active torsions:
REMARK  status: ('A' for Active; 'I' for Inactive)
REMARK    1  A    between atoms: C_1  and  C_2
REMARK    2  A    between atoms: C_2  and  C_3
REMARK    3  A    between atoms: C_2  and  N_20
REMARK    4  A    between atoms: C_3  and  C_4
REMARK    5  A    between atoms: N_8  and  C_9
REMARK    6  A    between atoms: C_9  and  C_10
REMARK    7  A    between atoms: C_10  and  C_11
REMARK    8  A    between atoms: C_11  and  O_12
REMARK    9  A    between atoms: C_15  and  C_17
REMARK   10  A    between atoms: N_20  and  C_21
REMARK   11  A    between atoms: C_21  and  C_22
REMARK   12  A    between atoms: C_22  and  O_23
REMARK   13  A    between atoms: O_23  and  C_24
REMARK   14  A    between atoms: C_29  and  O_30
REMARK   15  A    between atoms: O_30  and  C_31
REMARK   16  A    between atoms: C_31  and  C_32
REMARK                            x       y       z     vdW  Elec       q    Type
REMARK                         _______ _______ _______ _____ _____    ______ ____
ROOT
ATOM      1  C   UNL     1       1.090   0.025  -0.018  0.00  0.00    +0.000 C 
ENDROOT
BRANCH   1   2
ATOM      2  C   UNL     1       0.565   0.840   1.146  0.00  0.00    +0.000 A 
ATOM      3  C   UNL     1       1.412   1.466   2.055  0.00  0.00    +0.000 A 
ATOM      4  C   UNL     1       0.933   1.865   3.279  0.00  0.00    +0.000 A 
ATOM      5  C   UNL     1      -0.443   1.883   3.595  0.00  0.00    +0.000 A 
ATOM      6  N   UNL     1      -0.534   2.556   4.828  0.00  0.00    +0.000 N 
ATOM      7  C   UNL     1       0.789   2.573   5.475  0.00  0.00    +0.000 C 
ATOM      8  C   UNL     1       1.817   2.374   4.377  0.00  0.00    +0.000 C 
ATOM      9  C   UNL     1      -1.361   1.347   2.614  0.00  0.00    +0.000 A 
ATOM     10  C   UNL     1      -0.806   0.862   1.400  0.00  0.00    +0.000 A 
BRANCH   9  11
ATOM     11  C   UNL     1      -2.896   1.206   2.471  0.00  0.00    +0.000 C 
ATOM     12  N   UNL     1      -3.750   0.767   3.475  0.00  0.00    +0.000 N 
ATOM     13  O   UNL     1      -3.437   1.480   1.414  0.00  0.00    +0.000 OA
ATOM     14  H   UNL     1      -3.480   0.623   4.437  0.00  0.00    +0.000 HD
ATOM     15  H   UNL     1      -4.612   1.330   3.442  0.00  0.00    +0.000 HD
ENDBRANCH   9  11
BRANCH   6  16
ATOM     16  C   UNL     1      -1.654   3.159   5.546  0.00  0.00    +0.000 C 
BRANCH  16  17
ATOM     17  C   UNL     1      -2.823   3.186   4.625  0.00  0.00    +0.000 C 
BRANCH  17  18
ATOM     18  C   UNL     1      -4.235   3.327   5.125  0.00  0.00    +0.000 C 
BRANCH  18  19
ATOM     19  O   UNL     1      -5.200   2.955   4.130  0.00  0.00    +0.000 OA
ATOM     20  H   UNL     1      -5.038   3.435   3.295  0.00  0.00    +0.000 HD
ENDBRANCH  18  19
ENDBRANCH  17  18
ENDBRANCH  16  17
ENDBRANCH   6  16
ENDBRANCH   1   2
BRANCH   1  22
ATOM     21  C   UNL     1       3.105  -0.815   1.320  0.00  0.00    +0.000 C 
ATOM     22  C   UNL     1       2.626  -0.099   0.037  0.00  0.00    +0.000 C 
BRANCH  22  23
ATOM     23  N   UNL     1       3.174  -0.871  -1.072  0.00  0.00    +0.000 NA
ATOM     24  H   UNL     1       2.878  -0.432  -1.953  0.00  0.00    +0.000 HD
BRANCH  23  25
ATOM     25  C   UNL     1       4.658  -0.897  -0.949  0.00  0.00    +0.000 C 
BRANCH  25  26
ATOM     26  C   UNL     1       5.197  -1.763  -2.043  0.00  0.00    +0.000 C 
BRANCH  26  27
ATOM     27  O   UNL     1       6.585  -1.637  -2.290  0.00  0.00    +0.000 OA
BRANCH  27  28
ATOM     28  C   UNL     1       7.091  -2.338  -3.368  0.00  0.00    +0.000 A 
ATOM     29  C   UNL     1       8.177  -3.152  -2.983  0.00  0.00    +0.000 A 
ATOM     30  C   UNL     1       8.968  -3.808  -3.931  0.00  0.00    +0.000 A 
ATOM     31  C   UNL     1       8.640  -3.728  -5.277  0.00  0.00    +0.000 A 
ATOM     32  C   UNL     1       7.570  -2.937  -5.677  0.00  0.00    +0.000 A 
ATOM     33  C   UNL     1       6.807  -2.203  -4.757  0.00  0.00    +0.000 A 
BRANCH  33  34
ATOM     34  O   UNL     1       5.926  -1.400  -5.476  0.00  0.00    +0.000 OA
BRANCH  34  35
ATOM     35  C   UNL     1       4.958  -0.811  -4.665  0.00  0.00    +0.000 C 
BRANCH  35  36
ATOM     36  C   UNL     1       3.789   0.013  -5.119  0.00  0.00    +0.000 C 
ATOM     37  F   UNL     1       4.143   1.033  -5.911  0.00  0.00    +0.000 F 
ATOM     38  F   UNL     1       2.856  -0.746  -5.725  0.00  0.00    +0.000 F 
ATOM     39  F   UNL     1       3.194   0.544  -4.006  0.00  0.00    +0.000 F 
ENDBRANCH  35  36
ENDBRANCH  34  35
ENDBRANCH  33  34
ENDBRANCH  27  28
ENDBRANCH  26  27
ENDBRANCH  25  26
ENDBRANCH  23  25
ENDBRANCH  22  23
ENDBRANCH   1  22
TORSDOF 15
