REMARK  Name = Silver nitrate
REMARK  0 active torsions:
REMARK  status: ('A' for Active; 'I' for Inactive)
REMARK                            x       y       z     vdW  Elec       q    Type
REMARK                         _______ _______ _______ _____ _____    ______ ____
ROOT
ATOM      1 AG   UNL     1       1.079  -0.013   0.059  0.00  0.00    +0.000 Ag
ENDROOT
TORSDOF 0
REMARK  Name = Silver nitrate
REMARK  0 active torsions:
REMARK  status: ('A' for Active; 'I' for Inactive)
REMARK                            x       y       z     vdW  Elec       q    Type
REMARK                         _______ _______ _______ _____ _____    ______ ____
ROOT
ATOM      1  O   UNL     1       1.080  -0.027  -0.054  0.00  0.00    +0.000 OA
ATOM      2  N   UNL     1       2.450  -0.027  -0.054  0.00  0.00    +0.000 N 
ATOM      3  O   UNL     1       3.063  -0.857  -0.716  0.00  0.00    +0.000 OA
ATOM      4  O   UNL     1       3.063   0.803   0.608  0.00  0.00    +0.000 OA
ENDROOT
TORSDOF 0
