REMARK  Name = Simvastatin
REMARK  13 active torsions:
REMARK  status: ('A' for Active; 'I' for Inactive)
REMARK    1  A    between atoms: C_3  and  O_24
REMARK    2  A    between atoms: C_5  and  C_6
REMARK    3  A    between atoms: C_11  and  C_12
REMARK    4  A    between atoms: C_13  and  C_14
REMARK    5  A    between atoms: C_14  and  C_15
REMARK    6  A    between atoms: C_15  and  C_16
REMARK    7  A    between atoms: C_18  and  O_19
REMARK    8  A    between atoms: O_24  and  C_25
REMARK    9  A    between atoms: C_25  and  C_27
REMARK   10  A    between atoms: C_27  and  C_28
REMARK   11  A    between atoms: C_27  and  C_29
REMARK   12  A    between atoms: C_27  and  C_30
REMARK   13  A    between atoms: C_30  and  C_31
REMARK                            x       y       z     vdW  Elec       q    Type
REMARK                         _______ _______ _______ _____ _____    ______ ____
ROOT
ATOM      1  C   UNL     1       2.175   0.009  -0.078  0.00  0.00    +0.000 C 
ATOM      2  C   UNL     1       2.591   1.501  -0.188  0.00  0.00    +0.000 C 
ATOM      3  C   UNL     1       2.138   2.161  -1.478  0.00  0.00    +0.000 C 
ATOM      4  C   UNL     1       2.764   1.515  -2.679  0.00  0.00    +0.000 C 
ATOM      5  C   UNL     1       4.130   2.162  -2.921  0.00  0.00    +0.000 C 
ATOM      6  C   UNL     1       2.866   0.023  -2.509  0.00  0.00    +0.000 C 
ATOM      7  C   UNL     1       2.600  -0.666  -1.378  0.00  0.00    +0.000 C 
ATOM      8  C   UNL     1       2.743  -2.106  -1.357  0.00  0.00    +0.000 C 
ATOM      9  C   UNL     1       2.541  -2.853  -0.264  0.00  0.00    +0.000 C 
ATOM     10  C   UNL     1       2.172  -2.295   1.072  0.00  0.00    +0.000 C 
ATOM     11  C   UNL     1       0.662  -2.464   1.312  0.00  0.00    +0.000 C 
ATOM     12  C   UNL     1       2.621  -0.827   1.209  0.00  0.00    +0.000 C 
ENDROOT
BRANCH  12  13
ATOM     13  C   UNL     1       2.104  -0.422   2.639  0.00  0.00    +0.000 C 
BRANCH  13  14
ATOM     14  C   UNL     1       2.656   0.892   3.011  0.00  0.00    +0.000 C 
BRANCH  14  15
ATOM     15  C   UNL     1       2.154   1.729   4.223  0.00  0.00    +0.000 C 
ATOM     16  C   UNL     1       3.016   2.959   4.626  0.00  0.00    +0.000 C 
ATOM     17  C   UNL     1       2.723   3.541   5.944  0.00  0.00    +0.000 C 
ATOM     18  C   UNL     1       3.175   2.431   6.815  0.00  0.00    +0.000 C 
ATOM     19  C   UNL     1       2.559   1.097   6.493  0.00  0.00    +0.000 C 
ATOM     20  O   UNL     1       2.630   0.162   7.319  0.00  0.00    +0.000 OA
ATOM     21  O   UNL     1       1.965   0.860   5.319  0.00  0.00    +0.000 OA
BRANCH  17  22
ATOM     22  O   UNL     1       1.371   3.958   6.036  0.00  0.00    +0.000 OA
ATOM     23  H   UNL     1       0.780   3.305   5.625  0.00  0.00    +0.000 HD
ENDBRANCH  17  22
ENDBRANCH  14  15
ENDBRANCH  13  14
ENDBRANCH  12  13
BRANCH   2  24
ATOM     24  O   UNL     1       3.980   1.747   0.133  0.00  0.00    +0.000 OA
BRANCH  24  25
ATOM     25  C   UNL     1       4.595   2.804   0.731  0.00  0.00    +0.000 C 
ATOM     26  O   UNL     1       5.811   2.729   0.924  0.00  0.00    +0.000 OA
BRANCH  25  27
ATOM     27  C   UNL     1       3.770   4.009   1.305  0.00  0.00    +0.000 C 
ATOM     28  C   UNL     1       2.938   4.845   0.395  0.00  0.00    +0.000 C 
ATOM     29  C   UNL     1       2.658   3.479   2.091  0.00  0.00    +0.000 C 
BRANCH  27  30
ATOM     30  C   UNL     1       4.654   4.824   2.338  0.00  0.00    +0.000 C 
ATOM     31  C   UNL     1       3.933   5.912   3.162  0.00  0.00    +0.000 C 
ENDBRANCH  27  30
ENDBRANCH  25  27
ENDBRANCH  24  25
ENDBRANCH   2  24
TORSDOF 8
