REMARK  Name = Siponimod
REMARK  13 active torsions:
REMARK  status: ('A' for Active; 'I' for Inactive)
REMARK    1  A    between atoms: C_1  and  C_2
REMARK    2  A    between atoms: C_2  and  C_3
REMARK    3  A    between atoms: C_5  and  C_17
REMARK    4  A    between atoms: C_8  and  C_9
REMARK    5  A    between atoms: C_9  and  N_10
REMARK    6  A    between atoms: C_12  and  C_14
REMARK    7  A    between atoms: C_14  and  O_15
REMARK    8  A    between atoms: C_17  and  C_18
REMARK    9  A    between atoms: N_19  and  O_20
REMARK   10  A    between atoms: O_20  and  C_21
REMARK   11  A    between atoms: C_21  and  C_22
REMARK   12  A    between atoms: C_25  and  C_26
REMARK   13  A    between atoms: C_32  and  C_34
REMARK                            x       y       z     vdW  Elec       q    Type
REMARK                         _______ _______ _______ _____ _____    ______ ____
ROOT
ATOM      1  C   UNL     1       3.664   2.001   4.477  0.00  0.00    +0.000 C 
ATOM      2  C   UNL     1       3.700   0.596   5.095  0.00  0.00    +0.000 C 
ATOM      3  N   UNL     1       3.636   3.082   5.191  0.00  0.00    +0.000 NA
ENDROOT
BRANCH   1   6
ATOM      4  C   UNL     1       2.746   1.108   1.096  0.00  0.00    +0.000 A 
ATOM      5  C   UNL     1       3.449   1.035   2.272  0.00  0.00    +0.000 A 
ATOM      6  C   UNL     1       3.568   2.166   3.017  0.00  0.00    +0.000 A 
ATOM      7  C   UNL     1       3.343   3.404   2.411  0.00  0.00    +0.000 A 
ATOM      8  C   UNL     1       3.005   3.468   1.051  0.00  0.00    +0.000 A 
ATOM      9  C   UNL     1       2.771   2.290   0.317  0.00  0.00    +0.000 A 
BRANCH   4  11
ATOM     10  C   UNL     1       0.587  -0.382   0.729  0.00  0.00    +0.000 C 
ATOM     11  C   UNL     1       2.100  -0.204   0.828  0.00  0.00    +0.000 C 
ENDBRANCH   4  11
BRANCH   9  12
ATOM     12  C   UNL     1       2.578   2.454  -1.221  0.00  0.00    +0.000 C 
BRANCH  12  13
ATOM     13  N   UNL     1       2.640   1.321  -2.227  0.00  0.00    +0.000 NA
ATOM     14  C   UNL     1       3.596   0.239  -1.885  0.00  0.00    +0.000 C 
ATOM     15  C   UNL     1       2.405  -0.801  -2.018  0.00  0.00    +0.000 C 
ATOM     16  C   UNL     1       1.483   0.463  -1.958  0.00  0.00    +0.000 C 
BRANCH  15  17
ATOM     17  C   UNL     1       2.149  -1.706  -3.190  0.00  0.00    +0.000 C 
ATOM     18  O   UNL     1       1.301  -2.570  -3.201  0.00  0.00    +0.000 OA
BRANCH  17  19
ATOM     19  O   UNL     1       2.997  -1.496  -4.224  0.00  0.00    +0.000 OA
ATOM     20  H   UNL     1       3.543  -0.709  -4.053  0.00  0.00    +0.000 HD
ENDBRANCH  17  19
ENDBRANCH  15  17
ENDBRANCH  12  13
ENDBRANCH   9  12
ENDBRANCH   1   6
BRANCH   3  21
ATOM     21  O   UNL     1       3.660   2.751   6.532  0.00  0.00    +0.000 OA
BRANCH  21  22
ATOM     22  C   UNL     1       3.676   3.938   7.306  0.00  0.00    +0.000 C 
BRANCH  22  23
ATOM     23  C   UNL     1       3.746   3.529   8.748  0.00  0.00    +0.000 A 
ATOM     24  C   UNL     1       4.090   2.235   9.142  0.00  0.00    +0.000 A 
ATOM     25  C   UNL     1       3.950   1.849  10.470  0.00  0.00    +0.000 A 
ATOM     26  C   UNL     1       3.578   2.782  11.461  0.00  0.00    +0.000 A 
ATOM     27  C   UNL     1       3.256   4.112  11.074  0.00  0.00    +0.000 A 
ATOM     28  C   UNL     1       3.374   4.457   9.717  0.00  0.00    +0.000 A 
BRANCH  26  29
ATOM     29  C   UNL     1       3.632   2.299  12.905  0.00  0.00    +0.000 C 
ATOM     30  C   UNL     1       4.765   3.022  13.653  0.00  0.00    +0.000 C 
ATOM     31  C   UNL     1       4.744   2.781  15.153  0.00  0.00    +0.000 C 
ATOM     32  C   UNL     1       3.359   3.000  15.753  0.00  0.00    +0.000 C 
ATOM     33  C   UNL     1       2.324   2.103  15.082  0.00  0.00    +0.000 C 
ATOM     34  C   UNL     1       2.269   2.385  13.594  0.00  0.00    +0.000 C 
ENDBRANCH  26  29
BRANCH  27  35
ATOM     35  C   UNL     1       2.685   5.204  11.970  0.00  0.00    +0.000 C 
ATOM     36  F   UNL     1       1.426   4.928  12.407  0.00  0.00    +0.000 F 
ATOM     37  F   UNL     1       3.419   5.504  13.071  0.00  0.00    +0.000 F 
ATOM     38  F   UNL     1       2.548   6.402  11.325  0.00  0.00    +0.000 F 
ENDBRANCH  27  35
ENDBRANCH  22  23
ENDBRANCH  21  22
ENDBRANCH   3  21
TORSDOF 11
