REMARK  Name = Sitaxentan
REMARK  8 active torsions:
REMARK  status: ('A' for Active; 'I' for Inactive)
REMARK    1  A    between atoms: C_1  and  C_2
REMARK    2  A    between atoms: C_5  and  N_6
REMARK    3  A    between atoms: N_6  and  S_7
REMARK    4  A    between atoms: S_7  and  C_10
REMARK    5  A    between atoms: C_11  and  C_15
REMARK    6  A    between atoms: C_15  and  C_17
REMARK    7  A    between atoms: C_17  and  C_18
REMARK    8  A    between atoms: C_26  and  C_27
REMARK                            x       y       z     vdW  Elec       q    Type
REMARK                         _______ _______ _______ _____ _____    ______ ____
ROOT
ATOM      1  C   UNL     1       6.706  -4.448   0.031  0.00  0.00    +0.000 A 
ATOM      2  C   UNL     1       8.014  -3.996   0.043  0.00  0.00    +0.000 A 
ATOM      3  S   UNL     1       9.110  -5.322   0.023  0.00  0.00    +0.000 S 
ATOM      4  C   UNL     1       7.857  -6.480   0.009  0.00  0.00    +0.000 A 
ATOM      5  C   UNL     1       6.618  -5.886   0.019  0.00  0.00    +0.000 A 
ENDROOT
BRANCH   1   6
ATOM      6  S   UNL     1       5.251  -3.493   0.035  0.00  0.00    +0.000 S 
ATOM      7  O   UNL     1       4.665  -3.903   1.314  0.00  0.00    +0.000 OA
ATOM      8  O   UNL     1       4.667  -3.837  -1.225  0.00  0.00    +0.000 OA
BRANCH   6   9
ATOM      9  N   UNL     1       5.486  -1.865   0.113  0.00  0.00    +0.000 N 
ATOM     10  H   UNL     1       6.415  -1.463   0.006  0.00  0.00    +0.000 HD
BRANCH   9  15
ATOM     11  C   UNL     1       1.074   0.309   0.051  0.00  0.00    +0.000 C 
ATOM     12  C   UNL     1       2.530   0.115   0.049  0.00  0.00    +0.000 A 
ATOM     13  N   UNL     1       3.442   1.093   0.042  0.00  0.00    +0.000 NA
ATOM     14  O   UNL     1       4.667   0.420   0.045  0.00  0.00    +0.000 OA
ATOM     15  C   UNL     1       4.446  -0.935   0.068  0.00  0.00    +0.000 A 
ATOM     16  C   UNL     1       3.102  -1.163   0.061  0.00  0.00    +0.000 A 
ATOM     17 CL   UNL     1       2.178  -2.587   0.078  0.00  0.00    +0.000 Cl
ENDBRANCH   9  15
ENDBRANCH   6   9
ENDBRANCH   1   6
BRANCH   2  18
ATOM     18  C   UNL     1       8.504  -2.629   0.028  0.00  0.00    +0.000 C 
ATOM     19  O   UNL     1       7.737  -1.675  -0.196  0.00  0.00    +0.000 OA
BRANCH  18  20
ATOM     20  C   UNL     1       9.945  -2.282   0.185  0.00  0.00    +0.000 C 
BRANCH  20  21
ATOM     21  C   UNL     1      10.219  -0.777   0.052  0.00  0.00    +0.000 A 
ATOM     22  C   UNL     1       9.652   0.293   0.827  0.00  0.00    +0.000 A 
ATOM     23  C   UNL     1       9.779   1.580   0.288  0.00  0.00    +0.000 A 
ATOM     24  C   UNL     1      10.130   1.692  -1.014  0.00  0.00    +0.000 A 
ATOM     25  O   UNL     1       9.976   2.926  -1.550  0.00  0.00    +0.000 OA
ATOM     26  C   UNL     1      10.410   3.580  -0.373  0.00  0.00    +0.000 C 
ATOM     27  O   UNL     1       9.846   2.866   0.801  0.00  0.00    +0.000 OA
ATOM     28  C   UNL     1      11.147   0.900  -1.387  0.00  0.00    +0.000 A 
ATOM     29  C   UNL     1      11.082  -0.408  -0.995  0.00  0.00    +0.000 A 
ATOM     30  C   UNL     1      11.784  -1.329  -1.927  0.00  0.00    +0.000 C 
ENDBRANCH  20  21
ENDBRANCH  18  20
ENDBRANCH   2  18
TORSDOF 6
