REMARK  Name = Sitagliptin
REMARK  6 active torsions:
REMARK  status: ('A' for Active; 'I' for Inactive)
REMARK    1  A    between atoms: N_1  and  C_2
REMARK    2  A    between atoms: C_2  and  C_3
REMARK    3  A    between atoms: C_2  and  C_19
REMARK    4  A    between atoms: C_3  and  C_4
REMARK    5  A    between atoms: C_14  and  C_15
REMARK    6  A    between atoms: C_19  and  C_20
REMARK                            x       y       z     vdW  Elec       q    Type
REMARK                         _______ _______ _______ _____ _____    ______ ____
ROOT
ATOM      1  C   UNL     1       2.855   0.660   1.356  0.00  0.00    +0.000 C 
ENDROOT
BRANCH   1   2
ATOM      2  C   UNL     1       2.312   2.071   1.604  0.00  0.00    +0.000 C 
ATOM      3  O   UNL     1       1.474   2.598   0.871  0.00  0.00    +0.000 OA
ATOM      4  N   UNL     1       2.718   2.653   2.792  0.00  0.00    +0.000 N 
ATOM      5  C   UNL     1       4.115   2.716   3.187  0.00  0.00    +0.000 C 
ATOM      6  C   UNL     1       4.279   2.017   4.511  0.00  0.00    +0.000 C 
ATOM      7  N   UNL     1       3.278   2.463   5.451  0.00  0.00    +0.000 N 
ATOM      8  C   UNL     1       2.109   3.091   5.092  0.00  0.00    +0.000 A 
ATOM      9  C   UNL     1       1.793   3.424   3.647  0.00  0.00    +0.000 C 
ATOM     10  N   UNL     1       1.430   3.321   6.198  0.00  0.00    +0.000 NA
ATOM     11  N   UNL     1       2.155   2.803   7.269  0.00  0.00    +0.000 NA
ATOM     12  C   UNL     1       3.272   2.267   6.803  0.00  0.00    +0.000 A 
BRANCH  12  13
ATOM     13  C   UNL     1       4.375   1.556   7.523  0.00  0.00    +0.000 C 
ATOM     14  F   UNL     1       5.022   2.351   8.412  0.00  0.00    +0.000 F 
ATOM     15  F   UNL     1       3.953   0.451   8.188  0.00  0.00    +0.000 F 
ATOM     16  F   UNL     1       5.346   1.105   6.673  0.00  0.00    +0.000 F 
ENDBRANCH  12  13
ENDBRANCH   1   2
BRANCH   1  17
ATOM     17  C   UNL     1       2.389  -0.015   0.045  0.00  0.00    +0.000 C 
BRANCH  17  18
ATOM     18  N   UNL     1       0.923  -0.099  -0.026  0.00  0.00    +0.000 NA
ATOM     19  H   UNL     1       0.550   0.855   0.070  0.00  0.00    +0.000 HD
ATOM     20  H   UNL     1       0.554  -0.615   0.773  0.00  0.00    +0.000 HD
ENDBRANCH  17  18
BRANCH  17  21
ATOM     21  C   UNL     1       2.942  -1.455  -0.134  0.00  0.00    +0.000 C 
BRANCH  21  22
ATOM     22  C   UNL     1       4.449  -1.532  -0.152  0.00  0.00    +0.000 A 
ATOM     23  C   UNL     1       5.159  -1.541  -1.361  0.00  0.00    +0.000 A 
ATOM     24  C   UNL     1       6.553  -1.558  -1.340  0.00  0.00    +0.000 A 
ATOM     25  F   UNL     1       7.226  -1.575  -2.497  0.00  0.00    +0.000 F 
ATOM     26  C   UNL     1       7.243  -1.545  -0.131  0.00  0.00    +0.000 A 
ATOM     27  F   UNL     1       8.582  -1.542  -0.118  0.00  0.00    +0.000 F 
ATOM     28  C   UNL     1       6.557  -1.531   1.074  0.00  0.00    +0.000 A 
ATOM     29  C   UNL     1       5.170  -1.549   1.052  0.00  0.00    +0.000 A 
ATOM     30  F   UNL     1       4.514  -1.521   2.221  0.00  0.00    +0.000 F 
ENDBRANCH  21  22
ENDBRANCH  17  21
ENDBRANCH   1  17
TORSDOF 6
