REMARK  Name = Sodium molybdate
REMARK  0 active torsions:
REMARK  status: ('A' for Active; 'I' for Inactive)
REMARK                            x       y       z     vdW  Elec       q    Type
REMARK                         _______ _______ _______ _____ _____    ______ ____
ROOT
ATOM      1 NA   UNL     1       1.075   0.002  -0.066  0.00  0.00    +0.000 Na
ENDROOT
TORSDOF 0
REMARK  Name = Sodium molybdate
REMARK  0 active torsions:
REMARK  status: ('A' for Active; 'I' for Inactive)
REMARK                            x       y       z     vdW  Elec       q    Type
REMARK                         _______ _______ _______ _____ _____    ______ ____
ROOT
ATOM      1 NA   UNL     1       0.943   0.080  -0.016  0.00  0.00    +0.000 Na
ENDROOT
TORSDOF 0
REMARK  Name = Sodium molybdate
REMARK  0 active torsions:
REMARK  status: ('A' for Active; 'I' for Inactive)
REMARK                            x       y       z     vdW  Elec       q    Type
REMARK                         _______ _______ _______ _____ _____    ______ ____
ROOT
ATOM      1  O   UNL     1       1.047  -0.023   0.085  0.00  0.00    +0.000 OA
ATOM      2 MO   UNL     1       3.247  -0.023   0.085  0.00  0.00    +0.000 Mo
ATOM      3  O   UNL     1       3.980   0.018   2.159  0.00  0.00    +0.000 OA
ATOM      4  O   UNL     1       3.903  -1.649  -0.811  0.00  0.00    +0.000 OA
ATOM      5  O   UNL     1       3.903   1.566  -0.875  0.00  0.00    +0.000 OA
ENDROOT
TORSDOF 0
