REMARK  Name = Sodium oxybate
REMARK  4 active torsions:
REMARK  status: ('A' for Active; 'I' for Inactive)
REMARK    1  A    between atoms: O_2  and  C_3
REMARK    2  A    between atoms: C_3  and  C_4
REMARK    3  A    between atoms: C_4  and  C_5
REMARK    4  A    between atoms: C_5  and  C_6
REMARK                            x       y       z     vdW  Elec       q    Type
REMARK                         _______ _______ _______ _____ _____    ______ ____
ROOT
ATOM      1 NA   UNL     1       0.697  -1.814   0.152  0.00  0.00    +0.000 Na
ENDROOT
TORSDOF 0
REMARK  Name = Sodium oxybate
REMARK  4 active torsions:
REMARK  status: ('A' for Active; 'I' for Inactive)
REMARK    1  A    between atoms: O_2  and  C_3
REMARK    2  A    between atoms: C_3  and  C_4
REMARK    3  A    between atoms: C_4  and  C_5
REMARK    4  A    between atoms: C_5  and  C_6
REMARK                            x       y       z     vdW  Elec       q    Type
REMARK                         _______ _______ _______ _____ _____    ______ ____
ROOT
ATOM      1  C   UNL     2       2.964  -0.603  -1.307  0.00  0.00    +0.000 C 
ENDROOT
BRANCH   1   2
ATOM      2  C   UNL     2       2.523   0.246  -0.126  0.00  0.00    +0.000 C 
BRANCH   2   3
ATOM      3  O   UNL     2       1.089   0.301  -0.083  0.00  0.00    +0.000 OA
ATOM      4  H   UNL     2       0.872   1.047   0.518  0.00  0.00    +0.000 HD
ENDBRANCH   2   3
ENDBRANCH   1   2
BRANCH   1   5
ATOM      5  C   UNL     2       4.479  -0.718  -1.365  0.00  0.00    +0.000 C 
BRANCH   5   6
ATOM      6  C   UNL     2       4.970  -1.515  -2.575  0.00  0.00    +0.000 C 
ATOM      7  O   UNL     2       4.056  -2.031  -3.286  0.00  0.00    +0.000 OA
ATOM      8  O   UNL     2       6.217  -1.584  -2.673  0.00  0.00    +0.000 OA
ENDBRANCH   5   6
ENDBRANCH   1   5
TORSDOF 4
