REMARK  Name = Sodium citrate
REMARK  6 active torsions:
REMARK  status: ('A' for Active; 'I' for Inactive)
REMARK    1  A    between atoms: O_4  and  C_5
REMARK    2  A    between atoms: C_5  and  C_6
REMARK    3  A    between atoms: C_5  and  C_10
REMARK    4  A    between atoms: C_5  and  C_14
REMARK    5  A    between atoms: C_6  and  C_7
REMARK    6  A    between atoms: C_10  and  C_11
REMARK                            x       y       z     vdW  Elec       q    Type
REMARK                         _______ _______ _______ _____ _____    ______ ____
ROOT
ATOM      1 NA   UNL     1       0.657  -1.884  -1.290  0.00  0.00    +0.000 Na
ENDROOT
TORSDOF 0
REMARK  Name = Sodium citrate
REMARK  6 active torsions:
REMARK  status: ('A' for Active; 'I' for Inactive)
REMARK    1  A    between atoms: O_4  and  C_5
REMARK    2  A    between atoms: C_5  and  C_6
REMARK    3  A    between atoms: C_5  and  C_10
REMARK    4  A    between atoms: C_5  and  C_14
REMARK    5  A    between atoms: C_6  and  C_7
REMARK    6  A    between atoms: C_10  and  C_11
REMARK                            x       y       z     vdW  Elec       q    Type
REMARK                         _______ _______ _______ _____ _____    ______ ____
ROOT
ATOM      1 NA   UNL     2      -1.319   0.444   0.273  0.00  0.00    +0.000 Na
ENDROOT
TORSDOF 0
REMARK  Name = Sodium citrate
REMARK  6 active torsions:
REMARK  status: ('A' for Active; 'I' for Inactive)
REMARK    1  A    between atoms: O_4  and  C_5
REMARK    2  A    between atoms: C_5  and  C_6
REMARK    3  A    between atoms: C_5  and  C_10
REMARK    4  A    between atoms: C_5  and  C_14
REMARK    5  A    between atoms: C_6  and  C_7
REMARK    6  A    between atoms: C_10  and  C_11
REMARK                            x       y       z     vdW  Elec       q    Type
REMARK                         _______ _______ _______ _____ _____    ______ ____
ROOT
ATOM      1 NA   UNL     3       0.975   0.554   2.443  0.00  0.00    +0.000 Na
ENDROOT
TORSDOF 0
REMARK  Name = Sodium citrate
REMARK  6 active torsions:
REMARK  status: ('A' for Active; 'I' for Inactive)
REMARK    1  A    between atoms: O_4  and  C_5
REMARK    2  A    between atoms: C_5  and  C_6
REMARK    3  A    between atoms: C_5  and  C_10
REMARK    4  A    between atoms: C_5  and  C_14
REMARK    5  A    between atoms: C_6  and  C_7
REMARK    6  A    between atoms: C_10  and  C_11
REMARK                            x       y       z     vdW  Elec       q    Type
REMARK                         _______ _______ _______ _____ _____    ______ ____
ROOT
ATOM      1  C   UNL     4       2.667   0.131  -0.188  0.00  0.00    +0.000 C 
ENDROOT
BRANCH   1   2
ATOM      2  C   UNL     4       3.223  -1.339  -0.413  0.00  0.00    +0.000 C 
ATOM      3  O   UNL     4       2.287  -2.239  -0.353  0.00  0.00    +0.000 OA
ATOM      4  O   UNL     4       4.440  -1.499  -0.489  0.00  0.00    +0.000 OA
ENDBRANCH   1   2
BRANCH   1   5
ATOM      5  O   UNL     4       1.147   0.196  -0.062  0.00  0.00    +0.000 OA
ATOM      6  H   UNL     4       1.067   1.142  -0.382  0.00  0.00    +0.000 HD
ENDBRANCH   1   5
BRANCH   1   7
ATOM      7  C   UNL     4       3.125   1.074  -1.298  0.00  0.00    +0.000 C 
BRANCH   7   8
ATOM      8  C   UNL     4       2.484   0.687  -2.633  0.00  0.00    +0.000 C 
ATOM      9  O   UNL     4       1.608  -0.249  -2.579  0.00  0.00    +0.000 OA
ATOM     10  O   UNL     4       2.732   1.473  -3.581  0.00  0.00    +0.000 OA
ENDBRANCH   7   8
ENDBRANCH   1   7
BRANCH   1  11
ATOM     11  C   UNL     4       3.233   0.565   1.165  0.00  0.00    +0.000 C 
BRANCH  11  12
ATOM     12  C   UNL     4       2.648   1.894   1.682  0.00  0.00    +0.000 C 
ATOM     13  O   UNL     4       1.569   2.263   1.094  0.00  0.00    +0.000 OA
ATOM     14  O   UNL     4       2.823   2.056   2.924  0.00  0.00    +0.000 OA
ENDBRANCH  11  12
ENDBRANCH   1  11
TORSDOF 6
