REMARK  Name = Sodium ascorbate
REMARK  5 active torsions:
REMARK  status: ('A' for Active; 'I' for Inactive)
REMARK    1  A    between atoms: C_3  and  C_11
REMARK    2  A    between atoms: C_7  and  O_8
REMARK    3  A    between atoms: C_11  and  O_12
REMARK    4  A    between atoms: C_11  and  C_13
REMARK    5  A    between atoms: C_13  and  O_14
REMARK                            x       y       z     vdW  Elec       q    Type
REMARK                         _______ _______ _______ _____ _____    ______ ____
ROOT
ATOM      1 NA   UNL     1      -0.277   0.488  -0.966  0.00  0.00    +0.000 Na
ENDROOT
TORSDOF 0
REMARK  Name = Sodium ascorbate
REMARK  5 active torsions:
REMARK  status: ('A' for Active; 'I' for Inactive)
REMARK    1  A    between atoms: C_3  and  C_11
REMARK    2  A    between atoms: C_7  and  O_8
REMARK    3  A    between atoms: C_11  and  O_12
REMARK    4  A    between atoms: C_11  and  C_13
REMARK    5  A    between atoms: C_13  and  O_14
REMARK                            x       y       z     vdW  Elec       q    Type
REMARK                         _______ _______ _______ _____ _____    ______ ____
ROOT
ATOM      1  C   UNL     2       2.221  -0.069   0.223  0.00  0.00    +0.000 C 
ATOM      2  O   UNL     2       2.727  -1.232   0.853  0.00  0.00    +0.000 OA
ATOM      3  C   UNL     2       2.960  -0.873   2.152  0.00  0.00    +0.000 C 
ATOM      4  O   UNL     2       2.978  -1.638   3.096  0.00  0.00    +0.000 OA
ATOM      5  C   UNL     2       3.101   0.603   2.203  0.00  0.00    +0.000 C 
ATOM      6  C   UNL     2       2.630   1.096   1.064  0.00  0.00    +0.000 C 
ATOM      7  O   UNL     2       2.393   2.235   0.568  0.00  0.00    +0.000 OA
ENDROOT
BRANCH   5   8
ATOM      8  O   UNL     2       3.520   1.319   3.292  0.00  0.00    +0.000 OA
ATOM      9  H   UNL     2       3.790   0.679   3.968  0.00  0.00    +0.000 HD
ENDBRANCH   5   8
BRANCH   1  10
ATOM     10  C   UNL     2       2.540   0.039  -1.288  0.00  0.00    +0.000 C 
BRANCH  10  11
ATOM     11  O   UNL     2       1.816   1.173  -1.835  0.00  0.00    +0.000 OA
ATOM     12  H   UNL     2       2.232   1.943  -1.338  0.00  0.00    +0.000 HD
ENDBRANCH  10  11
BRANCH  10  13
ATOM     13  C   UNL     2       4.052   0.120  -1.518  0.00  0.00    +0.000 C 
BRANCH  13  14
ATOM     14  O   UNL     2       4.383   0.273  -2.896  0.00  0.00    +0.000 OA
ATOM     15  H   UNL     2       4.007  -0.473  -3.386  0.00  0.00    +0.000 HD
ENDBRANCH  13  14
ENDBRANCH  10  13
ENDBRANCH   1  10
TORSDOF 5
