REMARK  Name = Sodium metavanadate
REMARK  0 active torsions:
REMARK  status: ('A' for Active; 'I' for Inactive)
REMARK                            x       y       z     vdW  Elec       q    Type
REMARK                         _______ _______ _______ _____ _____    ______ ____
ROOT
ATOM      1 NA   UNL     1       1.062   0.069   0.038  0.00  0.00    +0.000 Na
ENDROOT
TORSDOF 0
REMARK  Name = Sodium metavanadate
REMARK  0 active torsions:
REMARK  status: ('A' for Active; 'I' for Inactive)
REMARK                            x       y       z     vdW  Elec       q    Type
REMARK                         _______ _______ _______ _____ _____    ______ ____
ROOT
ATOM      1  O   UNL     1       0.924   0.059   0.028  0.00  0.00    +0.000 OA
ATOM      2  V   UNL     1       3.114   0.059   0.028  0.00  0.00    +0.000 V 
ATOM      3  O   UNL     1       4.094   0.689   1.604  0.00  0.00    +0.000 OA
ATOM      4  O   UNL     1       4.094  -0.572  -1.548  0.00  0.00    +0.000 OA
ENDROOT
TORSDOF 0
