REMARK  Name = Sodium fluorophosphate
REMARK  0 active torsions:
REMARK  status: ('A' for Active; 'I' for Inactive)
REMARK                            x       y       z     vdW  Elec       q    Type
REMARK                         _______ _______ _______ _____ _____    ______ ____
ROOT
ATOM      1 NA   UNL     1       0.872  -0.951  -1.751  0.00  0.00    +0.000 Na
ENDROOT
TORSDOF 0
REMARK  Name = Sodium fluorophosphate
REMARK  0 active torsions:
REMARK  status: ('A' for Active; 'I' for Inactive)
REMARK                            x       y       z     vdW  Elec       q    Type
REMARK                         _______ _______ _______ _____ _____    ______ ____
ROOT
ATOM      1 NA   UNL     1       1.023  -0.295   1.752  0.00  0.00    +0.000 Na
ENDROOT
TORSDOF 0
REMARK  Name = Sodium fluorophosphate
REMARK  0 active torsions:
REMARK  status: ('A' for Active; 'I' for Inactive)
REMARK                            x       y       z     vdW  Elec       q    Type
REMARK                         _______ _______ _______ _____ _____    ______ ____
ROOT
ATOM      1  O   UNL     1       1.365   0.777   0.138  0.00  0.00    +0.000 OA
ATOM      2  P   UNL     1       2.699   0.161  -0.272  0.00  0.00    +0.000 P 
ATOM      3  O   UNL     1       2.306  -1.304  -0.426  0.00  0.00    +0.000 OA
ATOM      4  F   UNL     1       2.867   0.639  -1.764  0.00  0.00    +0.000 F 
ATOM      5  O   UNL     1       3.900   0.504   0.508  0.00  0.00    +0.000 OA
ENDROOT
TORSDOF 0
