REMARK  Name = Sodium phosphate P 32
REMARK  1 active torsions:
REMARK  status: ('A' for Active; 'I' for Inactive)
REMARK    1  A    between atoms: O_3  and  P_4
REMARK                            x       y       z     vdW  Elec       q    Type
REMARK                         _______ _______ _______ _____ _____    ______ ____
ROOT
ATOM      1 NA   UNL     1       0.358   2.083  -0.016  0.00  0.00    +0.000 Na
ENDROOT
TORSDOF 0
REMARK  Name = Sodium phosphate P 32
REMARK  1 active torsions:
REMARK  status: ('A' for Active; 'I' for Inactive)
REMARK    1  A    between atoms: O_3  and  P_4
REMARK                            x       y       z     vdW  Elec       q    Type
REMARK                         _______ _______ _______ _____ _____    ______ ____
ROOT
ATOM      1 NA   UNL     2       1.403  -2.654  -0.248  0.00  0.00    +0.000 Na
ENDROOT
TORSDOF 0
REMARK  Name = Sodium phosphate P 32
REMARK  1 active torsions:
REMARK  status: ('A' for Active; 'I' for Inactive)
REMARK    1  A    between atoms: O_3  and  P_4
REMARK                            x       y       z     vdW  Elec       q    Type
REMARK                         _______ _______ _______ _____ _____    ______ ____
ROOT
ATOM      1  P   UNL     3       2.721   0.098   0.017  0.00  0.00    +0.000 P 
ATOM      2  O   UNL     3       2.447  -1.163  -0.751  0.00  0.00    +0.000 OA
ATOM      3  O   UNL     3       2.318   1.426  -0.647  0.00  0.00    +0.000 OA
ATOM      4  O   UNL     3       4.269   0.098   0.017  0.00  0.00    +0.000 OA
ENDROOT
BRANCH   1   5
ATOM      5  O   UNL     3       0.991   0.098   0.017  0.00  0.00    +0.000 OA
ATOM      6  H   UNL     3       1.105   0.149  -0.974  0.00  0.00    +0.000 HD
ENDBRANCH   1   5
TORSDOF 1
