REMARK  Name = Sodium tartrate
REMARK  5 active torsions:
REMARK  status: ('A' for Active; 'I' for Inactive)
REMARK    1  A    between atoms: O_3  and  C_4
REMARK    2  A    between atoms: C_4  and  C_5
REMARK    3  A    between atoms: C_4  and  C_10
REMARK    4  A    between atoms: C_5  and  O_6
REMARK    5  A    between atoms: C_5  and  C_7
REMARK                            x       y       z     vdW  Elec       q    Type
REMARK                         _______ _______ _______ _____ _____    ______ ____
ROOT
ATOM      1 NA   UNL     1       1.978  -2.476   0.701  0.00  0.00    +0.000 Na
ENDROOT
TORSDOF 0
REMARK  Name = Sodium tartrate
REMARK  5 active torsions:
REMARK  status: ('A' for Active; 'I' for Inactive)
REMARK    1  A    between atoms: O_3  and  C_4
REMARK    2  A    between atoms: C_4  and  C_5
REMARK    3  A    between atoms: C_4  and  C_10
REMARK    4  A    between atoms: C_5  and  O_6
REMARK    5  A    between atoms: C_5  and  C_7
REMARK                            x       y       z     vdW  Elec       q    Type
REMARK                         _______ _______ _______ _____ _____    ______ ____
ROOT
ATOM      1 NA   UNL     2       1.336   2.460   1.110  0.00  0.00    +0.000 Na
ENDROOT
TORSDOF 0
REMARK  Name = Sodium tartrate
REMARK  5 active torsions:
REMARK  status: ('A' for Active; 'I' for Inactive)
REMARK    1  A    between atoms: O_3  and  C_4
REMARK    2  A    between atoms: C_4  and  C_5
REMARK    3  A    between atoms: C_4  and  C_10
REMARK    4  A    between atoms: C_5  and  O_6
REMARK    5  A    between atoms: C_5  and  C_7
REMARK                            x       y       z     vdW  Elec       q    Type
REMARK                         _______ _______ _______ _____ _____    ______ ____
ROOT
ATOM      1  C   UNL     3       2.424   0.149  -0.082  0.00  0.00    +0.000 C 
ENDROOT
BRANCH   1   2
ATOM      2  C   UNL     3       2.997   0.314   1.355  0.00  0.00    +0.000 C 
ATOM      3  O   UNL     3       2.133   0.558   2.230  0.00  0.00    +0.000 OA
ATOM      4  O   UNL     3       4.257   0.302   1.426  0.00  0.00    +0.000 OA
ENDBRANCH   1   2
BRANCH   1   5
ATOM      5  O   UNL     3       2.922   1.297  -0.786  0.00  0.00    +0.000 OA
ATOM      6  H   UNL     3       3.891   1.143  -0.875  0.00  0.00    +0.000 HD
ENDBRANCH   1   5
BRANCH   1   7
ATOM      7  C   UNL     3       0.871   0.029  -0.151  0.00  0.00    +0.000 C 
BRANCH   7   8
ATOM      8  C   UNL     3       0.400   0.689  -1.463  0.00  0.00    +0.000 C 
ATOM      9  O   UNL     3      -0.146   1.814  -1.276  0.00  0.00    +0.000 OA
ATOM     10  O   UNL     3       0.585  -0.038  -2.475  0.00  0.00    +0.000 OA
ENDBRANCH   7   8
BRANCH   7  11
ATOM     11  O   UNL     3       0.429  -1.367  -0.108  0.00  0.00    +0.000 OA
ATOM     12  H   UNL     3       0.055  -1.521  -1.016  0.00  0.00    +0.000 HD
ENDBRANCH   7  11
ENDBRANCH   1   7
TORSDOF 5
