REMARK  Name = Sodium lauryl sulfoacetate
REMARK  15 active torsions:
REMARK  status: ('A' for Active; 'I' for Inactive)
REMARK    1  A    between atoms: C_2  and  C_3
REMARK    2  A    between atoms: C_3  and  C_4
REMARK    3  A    between atoms: C_4  and  C_5
REMARK    4  A    between atoms: C_5  and  C_6
REMARK    5  A    between atoms: C_6  and  C_7
REMARK    6  A    between atoms: C_7  and  C_8
REMARK    7  A    between atoms: C_8  and  C_9
REMARK    8  A    between atoms: C_9  and  C_10
REMARK    9  A    between atoms: C_10  and  C_11
REMARK   10  A    between atoms: C_11  and  C_12
REMARK   11  A    between atoms: C_12  and  C_13
REMARK   12  A    between atoms: C_13  and  O_14
REMARK   13  A    between atoms: O_14  and  C_15
REMARK   14  A    between atoms: C_15  and  C_17
REMARK   15  A    between atoms: C_17  and  S_18
REMARK                            x       y       z     vdW  Elec       q    Type
REMARK                         _______ _______ _______ _____ _____    ______ ____
ROOT
ATOM      1 NA   UNL     1       1.562  -0.915   2.208  0.00  0.00    +0.000 Na
ENDROOT
TORSDOF 0
REMARK  Name = Sodium lauryl sulfoacetate
REMARK  15 active torsions:
REMARK  status: ('A' for Active; 'I' for Inactive)
REMARK    1  A    between atoms: C_2  and  C_3
REMARK    2  A    between atoms: C_3  and  C_4
REMARK    3  A    between atoms: C_4  and  C_5
REMARK    4  A    between atoms: C_5  and  C_6
REMARK    5  A    between atoms: C_6  and  C_7
REMARK    6  A    between atoms: C_7  and  C_8
REMARK    7  A    between atoms: C_8  and  C_9
REMARK    8  A    between atoms: C_9  and  C_10
REMARK    9  A    between atoms: C_10  and  C_11
REMARK   10  A    between atoms: C_11  and  C_12
REMARK   11  A    between atoms: C_12  and  C_13
REMARK   12  A    between atoms: C_13  and  O_14
REMARK   13  A    between atoms: O_14  and  C_15
REMARK   14  A    between atoms: C_15  and  C_17
REMARK   15  A    between atoms: C_17  and  S_18
REMARK                            x       y       z     vdW  Elec       q    Type
REMARK                         _______ _______ _______ _____ _____    ______ ____
ROOT
ATOM      1  C   UNL     2      10.733   4.583   3.489  0.00  0.00    +0.000 C 
ENDROOT
BRANCH   1   2
ATOM      2  C   UNL     2       9.207   4.564   3.474  0.00  0.00    +0.000 C 
BRANCH   2   3
ATOM      3  C   UNL     2       8.686   3.433   2.593  0.00  0.00    +0.000 C 
BRANCH   3   4
ATOM      4  C   UNL     2       7.163   3.423   2.586  0.00  0.00    +0.000 C 
BRANCH   4   5
ATOM      5  C   UNL     2       6.647   2.294   1.705  0.00  0.00    +0.000 C 
BRANCH   5   6
ATOM      6  C   UNL     2       5.125   2.285   1.687  0.00  0.00    +0.000 C 
BRANCH   6   7
ATOM      7  C   UNL     2       4.607   1.169   0.784  0.00  0.00    +0.000 C 
BRANCH   7   8
ATOM      8  C   UNL     2       3.079   1.192   0.721  0.00  0.00    +0.000 C 
BRANCH   8  10
ATOM      9  C   UNL     2       1.007   0.148  -0.361  0.00  0.00    +0.000 C 
ATOM     10  C   UNL     2       2.531   0.115  -0.222  0.00  0.00    +0.000 C 
ENDBRANCH   8  10
ENDBRANCH   7   8
ENDBRANCH   6   7
ENDBRANCH   5   6
ENDBRANCH   4   5
ENDBRANCH   3   4
ENDBRANCH   2   3
ENDBRANCH   1   2
BRANCH   1  11
ATOM     11  C   UNL     2      11.263   5.718   4.372  0.00  0.00    +0.000 C 
BRANCH  11  12
ATOM     12  C   UNL     2      12.792   5.746   4.395  0.00  0.00    +0.000 C 
BRANCH  12  13
ATOM     13  O   UNL     2      13.285   6.816   5.232  0.00  0.00    +0.000 OA
BRANCH  13  14
ATOM     14  C   UNL     2      14.673   6.860   5.269  0.00  0.00    +0.000 C 
ATOM     15  O   UNL     2      15.339   6.047   4.632  0.00  0.00    +0.000 OA
BRANCH  14  16
ATOM     16  C   UNL     2      15.153   7.979   6.147  0.00  0.00    +0.000 C 
BRANCH  16  17
ATOM     17  S   UNL     2      16.924   8.039   6.210  0.00  0.00    +0.000 S 
ATOM     18  O   UNL     2      17.309   6.749   6.782  0.00  0.00    +0.000 OA
ATOM     19  O   UNL     2      17.327   8.277   4.827  0.00  0.00    +0.000 OA
ATOM     20  O   UNL     2      17.181   9.173   7.099  0.00  0.00    +0.000 OA
ENDBRANCH  16  17
ENDBRANCH  14  16
ENDBRANCH  13  14
ENDBRANCH  12  13
ENDBRANCH  11  12
ENDBRANCH   1  11
TORSDOF 14
