REMARK  Name = Sodium acetate
REMARK  1 active torsions:
REMARK  status: ('A' for Active; 'I' for Inactive)
REMARK    1  A    between atoms: C_2  and  C_3
REMARK                            x       y       z     vdW  Elec       q    Type
REMARK                         _______ _______ _______ _____ _____    ______ ____
ROOT
ATOM      1 NA   UNL     1       1.921  -1.871   1.115  0.00  0.00    +0.000 Na
ENDROOT
TORSDOF 0
REMARK  Name = Sodium acetate
REMARK  1 active torsions:
REMARK  status: ('A' for Active; 'I' for Inactive)
REMARK    1  A    between atoms: C_2  and  C_3
REMARK                            x       y       z     vdW  Elec       q    Type
REMARK                         _______ _______ _______ _____ _____    ______ ____
ROOT
ATOM      1  C   UNL     2       0.877   0.288  -0.342  0.00  0.00    +0.000 C 
ATOM      2  C   UNL     2       2.387   0.163  -0.256  0.00  0.00    +0.000 C 
ATOM      3  O   UNL     2       2.778  -1.019  -0.539  0.00  0.00    +0.000 OA
ATOM      4  O   UNL     2       2.967   1.009   0.453  0.00  0.00    +0.000 OA
ENDROOT
TORSDOF 0
