REMARK  Name = Sodium glycerophosphate
REMARK  6 active torsions:
REMARK  status: ('A' for Active; 'I' for Inactive)
REMARK    1  A    between atoms: O_3  and  C_4
REMARK    2  A    between atoms: C_4  and  C_5
REMARK    3  A    between atoms: C_5  and  O_6
REMARK    4  A    between atoms: C_5  and  C_7
REMARK    5  A    between atoms: C_7  and  O_8
REMARK    6  A    between atoms: O_8  and  P_9
REMARK                            x       y       z     vdW  Elec       q    Type
REMARK                         _______ _______ _______ _____ _____    ______ ____
ROOT
ATOM      1 NA   UNL     1       0.566  -1.795  -1.271  0.00  0.00    +0.000 Na
ENDROOT
TORSDOF 0
REMARK  Name = Sodium glycerophosphate
REMARK  6 active torsions:
REMARK  status: ('A' for Active; 'I' for Inactive)
REMARK    1  A    between atoms: O_3  and  C_4
REMARK    2  A    between atoms: C_4  and  C_5
REMARK    3  A    between atoms: C_5  and  O_6
REMARK    4  A    between atoms: C_5  and  C_7
REMARK    5  A    between atoms: C_7  and  O_8
REMARK    6  A    between atoms: O_8  and  P_9
REMARK                            x       y       z     vdW  Elec       q    Type
REMARK                         _______ _______ _______ _____ _____    ______ ____
ROOT
ATOM      1 NA   UNL     2       0.584   0.410   2.180  0.00  0.00    +0.000 Na
ENDROOT
TORSDOF 0
REMARK  Name = Sodium glycerophosphate
REMARK  6 active torsions:
REMARK  status: ('A' for Active; 'I' for Inactive)
REMARK    1  A    between atoms: O_3  and  C_4
REMARK    2  A    between atoms: C_4  and  C_5
REMARK    3  A    between atoms: C_5  and  O_6
REMARK    4  A    between atoms: C_5  and  C_7
REMARK    5  A    between atoms: C_7  and  O_8
REMARK    6  A    between atoms: O_8  and  P_9
REMARK                            x       y       z     vdW  Elec       q    Type
REMARK                         _______ _______ _______ _____ _____    ______ ____
ROOT
ATOM      1  C   UNL     3       2.991  -1.040   0.796  0.00  0.00    +0.000 C 
ENDROOT
BRANCH   1   2
ATOM      2  O   UNL     3       2.342  -2.180   0.184  0.00  0.00    +0.000 OA
ATOM      3  H   UNL     3       3.092  -2.828   0.126  0.00  0.00    +0.000 HD
ENDBRANCH   1   2
BRANCH   1   4
ATOM      4  C   UNL     3       2.679   0.153  -0.114  0.00  0.00    +0.000 C 
BRANCH   4   5
ATOM      5  O   UNL     3       1.246   0.388  -0.217  0.00  0.00    +0.000 OA
ATOM      6  H   UNL     3       1.215   1.148  -0.817  0.00  0.00    +0.000 HD
ENDBRANCH   4   5
ENDBRANCH   1   4
BRANCH   1   7
ATOM      7  C   UNL     3       4.505  -1.126   0.883  0.00  0.00    +0.000 C 
BRANCH   7   8
ATOM      8  O   UNL     3       5.015  -2.039   1.865  0.00  0.00    +0.000 OA
BRANCH   8   9
ATOM      9  P   UNL     3       6.745  -2.039   1.865  0.00  0.00    +0.000 P 
ATOM     10  O   UNL     3       6.554  -2.886   0.585  0.00  0.00    +0.000 OA
ATOM     11  O   UNL     3       6.648  -0.497   1.862  0.00  0.00    +0.000 OA
ATOM     12  O   UNL     3       8.293  -2.039   1.865  0.00  0.00    +0.000 OA
ENDBRANCH   8   9
ENDBRANCH   7   8
ENDBRANCH   1   7
TORSDOF 6
