REMARK  Name = Sodium sulfate
REMARK  0 active torsions:
REMARK  status: ('A' for Active; 'I' for Inactive)
REMARK                            x       y       z     vdW  Elec       q    Type
REMARK                         _______ _______ _______ _____ _____    ______ ____
ROOT
ATOM      1 NA   UNL     1      -0.586   0.157  -0.463  0.00  0.00    +0.000 Na
ENDROOT
TORSDOF 0
REMARK  Name = Sodium sulfate
REMARK  0 active torsions:
REMARK  status: ('A' for Active; 'I' for Inactive)
REMARK                            x       y       z     vdW  Elec       q    Type
REMARK                         _______ _______ _______ _____ _____    ______ ____
ROOT
ATOM      1 NA   UNL     1       1.787  -0.231   1.922  0.00  0.00    +0.000 Na
ENDROOT
TORSDOF 0
REMARK  Name = Sodium sulfate
REMARK  0 active torsions:
REMARK  status: ('A' for Active; 'I' for Inactive)
REMARK                            x       y       z     vdW  Elec       q    Type
REMARK                         _______ _______ _______ _____ _____    ______ ____
ROOT
ATOM      1  O   UNL     1       1.334   0.057  -0.530  0.00  0.00    +0.000 OA
ATOM      2  S   UNL     1       2.813   0.051  -0.427  0.00  0.00    +0.000 S 
ATOM      3  O   UNL     1       3.456  -0.205  -1.687  0.00  0.00    +0.000 OA
ATOM      4  O   UNL     1       3.146   1.329   0.205  0.00  0.00    +0.000 OA
ATOM      5  O   UNL     1       3.061  -0.994   0.584  0.00  0.00    +0.000 OA
ENDROOT
TORSDOF 0
