REMARK  Name = Sodium zirconium cyclosilicate
REMARK  0 active torsions:
REMARK  status: ('A' for Active; 'I' for Inactive)
REMARK                            x       y       z     vdW  Elec       q    Type
REMARK                         _______ _______ _______ _____ _____    ______ ____
ROOT
ATOM      1 NA   UNL     1       0.912  -0.008   0.047  0.00  0.00    +0.000 Na
ENDROOT
TORSDOF 0
REMARK  Name = Sodium zirconium cyclosilicate
REMARK  0 active torsions:
REMARK  status: ('A' for Active; 'I' for Inactive)
REMARK                            x       y       z     vdW  Elec       q    Type
REMARK                         _______ _______ _______ _____ _____    ______ ____
ROOT
ATOM      1 NA   UNL     1       0.944   0.076   0.033  0.00  0.00    +0.000 Na
ENDROOT
TORSDOF 0
REMARK  Name = Sodium zirconium cyclosilicate
REMARK  0 active torsions:
REMARK  status: ('A' for Active; 'I' for Inactive)
REMARK                            x       y       z     vdW  Elec       q    Type
REMARK                         _______ _______ _______ _____ _____    ______ ____
ROOT
ATOM      1 ZR   UNL     1       0.968   0.068   0.066  0.00  0.00    +0.000 Zr
ENDROOT
TORSDOF 0
REMARK  Name = Sodium zirconium cyclosilicate
REMARK  0 active torsions:
REMARK  status: ('A' for Active; 'I' for Inactive)
REMARK                            x       y       z     vdW  Elec       q    Type
REMARK                         _______ _______ _______ _____ _____    ______ ____
ROOT
ATOM      1  O   UNL     1       1.072   0.024   0.065  0.00  0.00    +0.000 OA
ATOM      2 SI   UNL     1       2.842   0.024   0.065  0.00  0.00    +0.000 Si
ATOM      3  O   UNL     1       3.425   0.419   1.689  0.00  0.00    +0.000 OA
ATOM      4  O   UNL     1       3.354  -1.359  -0.344  0.00  0.00    +0.000 OA
ATOM      5 SI   UNL     1       2.924  -1.651  -1.675  0.00  0.00    +0.000 Si
ATOM      6  O   UNL     1       1.159  -1.516  -1.683  0.00  0.00    +0.000 OA
ATOM      7  O   UNL     1       3.487  -3.275  -2.097  0.00  0.00    +0.000 OA
ATOM      8  O   UNL     1       3.411  -0.737  -2.659  0.00  0.00    +0.000 OA
ATOM      9 SI   UNL     1       2.901   0.671  -2.344  0.00  0.00    +0.000 Si
ATOM     10  O   UNL     1       1.134   0.698  -2.430  0.00  0.00    +0.000 OA
ATOM     11  O   UNL     1       3.560   1.818  -3.521  0.00  0.00    +0.000 OA
ATOM     12  O   UNL     1       3.355   1.066  -0.935  0.00  0.00    +0.000 OA
ENDROOT
TORSDOF 0
