REMARK  Name = Sodium feredetate
REMARK  2 active torsions:
REMARK  status: ('A' for Active; 'I' for Inactive)
REMARK    1  A    between atoms: C_3  and  C_5
REMARK    2  A    between atoms: C_5  and  N_6
REMARK                            x       y       z     vdW  Elec       q    Type
REMARK                         _______ _______ _______ _____ _____    ______ ____
ROOT
ATOM      1 NA   UNL     1       0.989   0.040   0.091  0.00  0.00    +0.000 Na
ENDROOT
TORSDOF 0
REMARK  Name = Sodium feredetate
REMARK  2 active torsions:
REMARK  status: ('A' for Active; 'I' for Inactive)
REMARK    1  A    between atoms: C_3  and  C_5
REMARK    2  A    between atoms: C_5  and  N_6
REMARK                            x       y       z     vdW  Elec       q    Type
REMARK                         _______ _______ _______ _____ _____    ______ ____
ROOT
ATOM      1  N   UNL     2       4.691  -0.010  -0.985  0.00  0.00    +0.000 N 
ATOM      2  C   UNL     2       5.323  -0.976  -1.894  0.00  0.00    +0.000 C 
ATOM      3  C   UNL     2       2.492  -3.431  -2.304  0.00  0.00    +0.000 C 
ATOM      4  N   UNL     2       3.196  -2.865  -1.144  0.00  0.00    +0.000 N 
ATOM      5  C   UNL     2       2.385  -2.413   0.061  0.00  0.00    +0.000 C 
ATOM      6  C   UNL     2       2.503  -0.901   0.247  0.00  0.00    +0.000 C 
ATOM      7  O   UNL     2       1.745  -0.047  -0.312  0.00  0.00    +0.000 OA
ATOM      8  O   UNL     2       3.649  -0.551   1.191  0.00  0.00    +0.000 OA
ATOM      9 FE   UNL     2       4.948  -0.359   0.417  0.00  0.00    +0.000 Fe
ATOM     10  O   UNL     2       5.680   0.855   0.960  0.00  0.00    +0.000 OA
ATOM     11  C   UNL     2       5.755   1.724  -0.068  0.00  0.00    +0.000 C 
ATOM     12  O   UNL     2       6.300   2.870   0.004  0.00  0.00    +0.000 OA
ATOM     13  C   UNL     2       5.186   1.229  -1.173  0.00  0.00    +0.000 C 
ATOM     14  O   UNL     2       5.855  -1.580   0.504  0.00  0.00    +0.000 OA
ATOM     15  C   UNL     2       5.054  -2.876   0.595  0.00  0.00    +0.000 C 
ATOM     16  O   UNL     2       4.802  -3.494   1.676  0.00  0.00    +0.000 OA
ATOM     17  C   UNL     2       4.599  -3.327  -0.784  0.00  0.00    +0.000 C 
ENDROOT
BRANCH   1  18
ATOM     18  C   UNL     2       3.245  -0.024  -1.253  0.00  0.00    +0.000 C 
BRANCH  18  20
ATOM     19  O   UNL     2       1.065   0.044   0.062  0.00  0.00    +0.000 OA
ATOM     20  C   UNL     2       2.485   0.044   0.062  0.00  0.00    +0.000 C 
ATOM     21  O   UNL     2       3.121   0.100   1.161  0.00  0.00    +0.000 OA
ENDBRANCH  18  20
ENDBRANCH   1  18
TORSDOF 2
