REMARK  Name = Sodium bicarbonate
REMARK  1 active torsions:
REMARK  status: ('A' for Active; 'I' for Inactive)
REMARK    1  A    between atoms: O_2  and  C_3
REMARK                            x       y       z     vdW  Elec       q    Type
REMARK                         _______ _______ _______ _____ _____    ______ ____
ROOT
ATOM      1 NA   UNL     1       0.563  -1.180  -0.776  0.00  0.00    +0.000 Na
ENDROOT
TORSDOF 0
REMARK  Name = Sodium bicarbonate
REMARK  1 active torsions:
REMARK  status: ('A' for Active; 'I' for Inactive)
REMARK    1  A    between atoms: O_2  and  C_3
REMARK                            x       y       z     vdW  Elec       q    Type
REMARK                         _______ _______ _______ _____ _____    ______ ____
ROOT
ATOM      1  C   UNL     2       2.399   0.275   0.137  0.00  0.00    +0.000 C 
ATOM      2  O   UNL     2       2.838  -0.089   1.247  0.00  0.00    +0.000 OA
ATOM      3  O   UNL     2       2.741   0.036  -1.030  0.00  0.00    +0.000 OA
ENDROOT
BRANCH   1   4
ATOM      4  O   UNL     2       1.118   0.621   0.251  0.00  0.00    +0.000 OA
ATOM      5  H   UNL     2       1.138   0.659   1.235  0.00  0.00    +0.000 HD
ENDBRANCH   1   4
TORSDOF 1
