REMARK  Name = Sodium chromate Cr-51
REMARK  0 active torsions:
REMARK  status: ('A' for Active; 'I' for Inactive)
REMARK                            x       y       z     vdW  Elec       q    Type
REMARK                         _______ _______ _______ _____ _____    ______ ____
ROOT
ATOM      1 NA   UNL     1       1.000  -0.046   0.089  0.00  0.00    +0.000 Na
ENDROOT
TORSDOF 0
REMARK  Name = Sodium chromate Cr-51
REMARK  0 active torsions:
REMARK  status: ('A' for Active; 'I' for Inactive)
REMARK                            x       y       z     vdW  Elec       q    Type
REMARK                         _______ _______ _______ _____ _____    ______ ____
ROOT
ATOM      1 NA   UNL     1       1.059   0.059   0.054  0.00  0.00    +0.000 Na
ENDROOT
TORSDOF 0
REMARK  Name = Sodium chromate Cr-51
REMARK  0 active torsions:
REMARK  status: ('A' for Active; 'I' for Inactive)
REMARK                            x       y       z     vdW  Elec       q    Type
REMARK                         _______ _______ _______ _____ _____    ______ ____
ROOT
ATOM      1  O   UNL     1       1.075   0.043   0.050  0.00  0.00    +0.000 OA
ATOM      2 CR   UNL     1       3.125   0.043   0.050  0.00  0.00    +0.000 Cr
ATOM      3  O   UNL     1       3.809   0.996   1.731  0.00  0.00    +0.000 OA
ATOM      4  O   UNL     1       3.737  -1.687   0.037  0.00  0.00    +0.000 OA
ATOM      5  O   UNL     1       3.737   0.919  -1.441  0.00  0.00    +0.000 OA
ENDROOT
TORSDOF 0
