REMARK  Name = Sodium tetradecyl sulfate
REMARK  15 active torsions:
REMARK  status: ('A' for Active; 'I' for Inactive)
REMARK    1  A    between atoms: C_2  and  C_3
REMARK    2  A    between atoms: C_3  and  C_4
REMARK    3  A    between atoms: C_4  and  C_5
REMARK    4  A    between atoms: C_5  and  C_6
REMARK    5  A    between atoms: C_6  and  C_7
REMARK    6  A    between atoms: C_6  and  C_9
REMARK    7  A    between atoms: C_7  and  C_8
REMARK    8  A    between atoms: C_9  and  C_10
REMARK    9  A    between atoms: C_10  and  C_11
REMARK   10  A    between atoms: C_11  and  C_12
REMARK   11  A    between atoms: C_11  and  O_16
REMARK   12  A    between atoms: C_12  and  C_13
REMARK   13  A    between atoms: C_13  and  C_14
REMARK   14  A    between atoms: C_13  and  C_15
REMARK   15  A    between atoms: O_16  and  S_17
REMARK                            x       y       z     vdW  Elec       q    Type
REMARK                         _______ _______ _______ _____ _____    ______ ____
ROOT
ATOM      1 NA   UNL     1       0.722  -1.049   1.886  0.00  0.00    +0.000 Na
ENDROOT
TORSDOF 0
REMARK  Name = Sodium tetradecyl sulfate
REMARK  15 active torsions:
REMARK  status: ('A' for Active; 'I' for Inactive)
REMARK    1  A    between atoms: C_2  and  C_3
REMARK    2  A    between atoms: C_3  and  C_4
REMARK    3  A    between atoms: C_4  and  C_5
REMARK    4  A    between atoms: C_5  and  C_6
REMARK    5  A    between atoms: C_6  and  C_7
REMARK    6  A    between atoms: C_6  and  C_9
REMARK    7  A    between atoms: C_7  and  C_8
REMARK    8  A    between atoms: C_9  and  C_10
REMARK    9  A    between atoms: C_10  and  C_11
REMARK   10  A    between atoms: C_11  and  C_12
REMARK   11  A    between atoms: C_11  and  O_16
REMARK   12  A    between atoms: C_12  and  C_13
REMARK   13  A    between atoms: C_13  and  C_14
REMARK   14  A    between atoms: C_13  and  C_15
REMARK   15  A    between atoms: O_16  and  S_17
REMARK                            x       y       z     vdW  Elec       q    Type
REMARK                         _______ _______ _______ _____ _____    ______ ____
ROOT
ATOM      1  C   UNL     2       8.744  -2.544   3.364  0.00  0.00    +0.000 C 
ENDROOT
BRANCH   1   2
ATOM      2  C   UNL     2       7.217  -2.766   3.337  0.00  0.00    +0.000 C 
BRANCH   2   3
ATOM      3  C   UNL     2       6.618  -2.273   1.992  0.00  0.00    +0.000 C 
BRANCH   3   4
ATOM      4  C   UNL     2       5.101  -1.893   2.106  0.00  0.00    +0.000 C 
BRANCH   4   5
ATOM      5  C   UNL     2       4.487  -3.275   2.044  0.00  0.00    +0.000 C 
ATOM      6  C   UNL     2       3.004  -3.379   2.181  0.00  0.00    +0.000 C 
ENDBRANCH   4   5
BRANCH   4   7
ATOM      7  C   UNL     2       4.643  -0.873   1.005  0.00  0.00    +0.000 C 
BRANCH   7   8
ATOM      8  C   UNL     2       3.139  -0.628   0.938  0.00  0.00    +0.000 C 
BRANCH   8  10
ATOM      9  C   UNL     2       1.088   0.231  -0.361  0.00  0.00    +0.000 C 
ATOM     10  C   UNL     2       2.623   0.224  -0.216  0.00  0.00    +0.000 C 
ENDBRANCH   8  10
ENDBRANCH   7   8
ENDBRANCH   4   7
ENDBRANCH   3   4
ENDBRANCH   2   3
ENDBRANCH   1   2
BRANCH   1  11
ATOM     11  C   UNL     2       9.111  -1.047   3.530  0.00  0.00    +0.000 C 
BRANCH  11  12
ATOM     12  C   UNL     2       8.631  -0.053   2.481  0.00  0.00    +0.000 C 
ATOM     13  C   UNL     2       7.178   0.389   2.650  0.00  0.00    +0.000 C 
ATOM     14  C   UNL     2       9.326   1.279   2.589  0.00  0.00    +0.000 C 
ENDBRANCH  11  12
ENDBRANCH   1  11
BRANCH   1  15
ATOM     15  O   UNL     2       9.333  -3.281   4.444  0.00  0.00    +0.000 OA
BRANCH  15  16
ATOM     16  S   UNL     2      10.977  -3.428   4.458  0.00  0.00    +0.000 S 
ATOM     17  O   UNL     2      11.299  -3.935   3.150  0.00  0.00    +0.000 OA
ATOM     18  O   UNL     2      11.471  -2.082   4.748  0.00  0.00    +0.000 OA
ATOM     19  O   UNL     2      11.226  -4.369   5.572  0.00  0.00    +0.000 OA
ENDBRANCH  15  16
ENDBRANCH   1  15
TORSDOF 11
