REMARK  Name = Sodium bisulfite
REMARK  1 active torsions:
REMARK  status: ('A' for Active; 'I' for Inactive)
REMARK    1  A    between atoms: O_2  and  S_3
REMARK                            x       y       z     vdW  Elec       q    Type
REMARK                         _______ _______ _______ _____ _____    ______ ____
ROOT
ATOM      1 NA   UNL     1       1.251   1.531   1.209  0.00  0.00    +0.000 Na
ENDROOT
TORSDOF 0
REMARK  Name = Sodium bisulfite
REMARK  1 active torsions:
REMARK  status: ('A' for Active; 'I' for Inactive)
REMARK    1  A    between atoms: O_2  and  S_3
REMARK                            x       y       z     vdW  Elec       q    Type
REMARK                         _______ _______ _______ _____ _____    ______ ____
ROOT
ATOM      1  S   UNL     2       2.696  -0.160  -0.104  0.00  0.00    +0.000 S 
ATOM      2  O   UNL     2       2.825   1.323  -0.318  0.00  0.00    +0.000 OA
ATOM      3  O   UNL     2       2.888  -0.518   1.352  0.00  0.00    +0.000 OA
ENDROOT
BRANCH   1   4
ATOM      4  O   UNL     2       1.076  -0.357  -0.306  0.00  0.00    +0.000 OA
ATOM      5  H   UNL     2       0.858  -0.017  -1.206  0.00  0.00    +0.000 HD
ENDBRANCH   1   4
TORSDOF 1
