REMARK  Name = Sodium borate
REMARK  0 active torsions:
REMARK  status: ('A' for Active; 'I' for Inactive)
REMARK                            x       y       z     vdW  Elec       q    Type
REMARK                         _______ _______ _______ _____ _____    ______ ____
ROOT
ATOM      1 NA   UNL     1       0.966  -0.068  -0.065  0.00  0.00    +0.000 Na
ENDROOT
TORSDOF 0
REMARK  Name = Sodium borate
REMARK  0 active torsions:
REMARK  status: ('A' for Active; 'I' for Inactive)
REMARK                            x       y       z     vdW  Elec       q    Type
REMARK                         _______ _______ _______ _____ _____    ______ ____
ROOT
ATOM      1 NA   UNL     1       1.080   0.051  -0.032  0.00  0.00    +0.000 Na
ENDROOT
TORSDOF 0
REMARK  Name = Sodium borate
REMARK  0 active torsions:
REMARK  status: ('A' for Active; 'I' for Inactive)
REMARK                            x       y       z     vdW  Elec       q    Type
REMARK                         _______ _______ _______ _____ _____    ______ ____
ROOT
ATOM      1  O   UNL     1       1.092  -0.031   0.025  0.00  0.00    +0.000 OA
ATOM      2  B   UNL     1       2.592  -0.031   0.025  0.00  0.00    +0.000 B 
ATOM      3  O   UNL     1       3.290   1.160   0.026  0.00  0.00    +0.000 OA
ATOM      4  B   UNL     1       4.614   1.168   0.026  0.00  0.00    +0.000 B 
ATOM      5  O   UNL     1       5.300   2.413   0.021  0.00  0.00    +0.000 OA
ATOM      6  B   UNL     1       6.721   2.441   0.021  0.00  0.00    +0.000 B 
ATOM      7  O   UNL     1       7.445   3.755   0.015  0.00  0.00    +0.000 OA
ATOM      8  O   UNL     1       5.440  -2.384   0.034  0.00  0.00    +0.000 OA
ATOM      9  B   UNL     1       4.680  -1.182   0.029  0.00  0.00    +0.000 B 
ATOM     10  O   UNL     1       3.294  -1.227   0.023  0.00  0.00    +0.000 OA
ATOM     11  O   UNL     1       5.314   0.046   0.031  0.00  0.00    +0.000 OA
ENDROOT
TORSDOF 0
