REMARK  Name = Sodium carbonate
REMARK  0 active torsions:
REMARK  status: ('A' for Active; 'I' for Inactive)
REMARK                            x       y       z     vdW  Elec       q    Type
REMARK                         _______ _______ _______ _____ _____    ______ ____
ROOT
ATOM      1 NA   UNL     1      -0.540   0.531  -0.368  0.00  0.00    +0.000 Na
ENDROOT
TORSDOF 0
REMARK  Name = Sodium carbonate
REMARK  0 active torsions:
REMARK  status: ('A' for Active; 'I' for Inactive)
REMARK                            x       y       z     vdW  Elec       q    Type
REMARK                         _______ _______ _______ _____ _____    ______ ____
ROOT
ATOM      1 NA   UNL     1       1.499  -1.681   0.789  0.00  0.00    +0.000 Na
ENDROOT
TORSDOF 0
REMARK  Name = Sodium carbonate
REMARK  0 active torsions:
REMARK  status: ('A' for Active; 'I' for Inactive)
REMARK                            x       y       z     vdW  Elec       q    Type
REMARK                         _______ _______ _______ _____ _____    ______ ____
ROOT
ATOM      1  O   UNL     1       1.495   0.476  -0.072  0.00  0.00    +0.000 OA
ATOM      2  C   UNL     1       2.726   0.380  -0.186  0.00  0.00    +0.000 C 
ATOM      3  O   UNL     1       3.092  -0.422   0.678  0.00  0.00    +0.000 OA
ATOM      4  O   UNL     1       3.402   0.841  -1.065  0.00  0.00    +0.000 OA
ENDROOT
TORSDOF 0
