REMARK  Name = Sofosbuvir
REMARK  16 active torsions:
REMARK  status: ('A' for Active; 'I' for Inactive)
REMARK    1  A    between atoms: C_1  and  C_2
REMARK    2  A    between atoms: C_2  and  C_3
REMARK    3  A    between atoms: C_2  and  O_4
REMARK    4  A    between atoms: O_4  and  C_5
REMARK    5  A    between atoms: C_5  and  C_7
REMARK    6  A    between atoms: C_7  and  C_8
REMARK    7  A    between atoms: C_7  and  N_9
REMARK    8  A    between atoms: N_9  and  P_10
REMARK    9  A    between atoms: P_10  and  O_12
REMARK   10  A    between atoms: P_10  and  O_30
REMARK   11  A    between atoms: O_12  and  C_13
REMARK   12  A    between atoms: C_13  and  C_14
REMARK   13  A    between atoms: C_16  and  N_17
REMARK   14  A    between atoms: C_25  and  C_26
REMARK   15  A    between atoms: C_28  and  O_29
REMARK   16  A    between atoms: O_30  and  C_31
REMARK                            x       y       z     vdW  Elec       q    Type
REMARK                         _______ _______ _______ _____ _____    ______ ____
ROOT
ATOM      1  O   UNL     1      11.693   1.403  -0.313  0.00  0.00    +0.000 OA
ENDROOT
BRANCH   1   2
ATOM      2  P   UNL     1      12.505   1.620  -1.730  0.00  0.00    +0.000 P 
ATOM      3  O   UNL     1      12.008   3.086  -1.691  0.00  0.00    +0.000 OA
BRANCH   2   4
ATOM      4  N   UNL     1      14.090   2.184  -1.443  0.00  0.00    +0.000 NA
ATOM      5  H   UNL     1      14.148   2.576  -0.511  0.00  0.00    +0.000 HD
BRANCH   4   6
ATOM      6  C   UNL     1      14.529   3.278  -2.406  0.00  0.00    +0.000 C 
ATOM      7  C   UNL     1      13.761   4.637  -2.319  0.00  0.00    +0.000 C 
BRANCH   6   8
ATOM      8  C   UNL     1      15.976   3.677  -2.116  0.00  0.00    +0.000 C 
ATOM      9  O   UNL     1      16.266   4.626  -1.394  0.00  0.00    +0.000 OA
BRANCH   8  10
ATOM     10  O   UNL     1      16.892   2.880  -2.736  0.00  0.00    +0.000 OA
BRANCH  10  12
ATOM     11  C   UNL     1      19.171   2.133  -3.030  0.00  0.00    +0.000 C 
ATOM     12  C   UNL     1      18.269   3.217  -2.445  0.00  0.00    +0.000 C 
ATOM     13  C   UNL     1      18.665   4.564  -3.057  0.00  0.00    +0.000 C 
ENDBRANCH  10  12
ENDBRANCH   8  10
ENDBRANCH   6   8
ENDBRANCH   4   6
ENDBRANCH   2   4
BRANCH   2  14
ATOM     14  O   UNL     1      13.061  -0.017  -1.774  0.00  0.00    +0.000 OA
BRANCH  14  15
ATOM     15  C   UNL     1      12.254  -1.122  -1.370  0.00  0.00    +0.000 A 
ATOM     16  C   UNL     1      10.887  -1.034  -1.091  0.00  0.00    +0.000 A 
ATOM     17  C   UNL     1      10.291  -1.868  -0.115  0.00  0.00    +0.000 A 
ATOM     18  C   UNL     1      11.003  -2.900   0.476  0.00  0.00    +0.000 A 
ATOM     19  C   UNL     1      12.264  -3.186  -0.027  0.00  0.00    +0.000 A 
ATOM     20  C   UNL     1      12.895  -2.300  -0.944  0.00  0.00    +0.000 A 
ENDBRANCH  14  15
ENDBRANCH   2  14
ENDBRANCH   1   2
BRANCH   1  21
ATOM     21  C   UNL     1      10.753   2.405   0.130  0.00  0.00    +0.000 C 
BRANCH  21  22
ATOM     22  C   UNL     1       9.950   2.001   1.354  0.00  0.00    +0.000 C 
ATOM     23  O   UNL     1      10.110   0.593   1.617  0.00  0.00    +0.000 OA
ATOM     24  C   UNL     1      11.042   0.424   2.721  0.00  0.00    +0.000 C 
ATOM     25  C   UNL     1      11.523   1.837   3.136  0.00  0.00    +0.000 C 
ATOM     26  C   UNL     1      12.877   2.289   2.584  0.00  0.00    +0.000 C 
ATOM     27  F   UNL     1      11.604   1.914   4.491  0.00  0.00    +0.000 F 
ATOM     28  C   UNL     1      10.406   2.735   2.614  0.00  0.00    +0.000 C 
BRANCH  24  29
ATOM     29  N   UNL     1      12.133  -0.542   2.425  0.00  0.00    +0.000 N 
ATOM     30  C   UNL     1      13.082  -0.255   1.484  0.00  0.00    +0.000 A 
ATOM     31  C   UNL     1      14.197  -0.928   1.227  0.00  0.00    +0.000 A 
ATOM     32  C   UNL     1      14.309  -2.217   1.877  0.00  0.00    +0.000 A 
ATOM     33  O   UNL     1      15.071  -3.070   1.421  0.00  0.00    +0.000 OA
ATOM     34  N   UNL     1      13.415  -2.445   2.886  0.00  0.00    +0.000 N 
ATOM     35  C   UNL     1      12.269  -1.706   3.176  0.00  0.00    +0.000 A 
ATOM     36  O   UNL     1      11.471  -2.099   3.996  0.00  0.00    +0.000 OA
ATOM     37  H   UNL     1      13.424  -3.377   3.265  0.00  0.00    +0.000 HD
ENDBRANCH  24  29
BRANCH  28  38
ATOM     38  O   UNL     1       9.303   2.843   3.522  0.00  0.00    +0.000 OA
ATOM     39  H   UNL     1       8.936   1.957   3.684  0.00  0.00    +0.000 HD
ENDBRANCH  28  38
ENDBRANCH  21  22
ENDBRANCH   1  21
TORSDOF 12
