REMARK  Name = Solifenacin
REMARK  3 active torsions:
REMARK  status: ('A' for Active; 'I' for Inactive)
REMARK    1  A    between atoms: C_2  and  O_3
REMARK    2  A    between atoms: O_3  and  C_4
REMARK    3  A    between atoms: C_21  and  C_22
REMARK                            x       y       z     vdW  Elec       q    Type
REMARK                         _______ _______ _______ _____ _____    ______ ____
ROOT
ATOM      1  O   UNL     1       6.249  -3.406  -1.815  0.00  0.00    +0.000 OA
ATOM      2  C   UNL     1       5.852  -2.513  -1.087  0.00  0.00    +0.000 C 
ATOM      3  N   UNL     1       6.388  -2.401   0.231  0.00  0.00    +0.000 N 
ATOM      4  C   UNL     1       7.849  -2.568   0.344  0.00  0.00    +0.000 C 
ATOM      5  C   UNL     1       8.471  -2.382   1.747  0.00  0.00    +0.000 C 
ATOM      6  C   UNL     1       7.851  -1.236   2.500  0.00  0.00    +0.000 A 
ATOM      7  C   UNL     1       8.624  -0.422   3.342  0.00  0.00    +0.000 A 
ATOM      8  C   UNL     1       8.114   0.771   3.853  0.00  0.00    +0.000 A 
ATOM      9  C   UNL     1       6.812   1.139   3.558  0.00  0.00    +0.000 A 
ATOM     10  C   UNL     1       5.982   0.235   2.880  0.00  0.00    +0.000 A 
ATOM     11  C   UNL     1       6.485  -0.974   2.330  0.00  0.00    +0.000 A 
ATOM     12  C   UNL     1       5.663  -1.967   1.455  0.00  0.00    +0.000 C 
ENDROOT
BRANCH  12  13
ATOM     13  C   UNL     1       4.992  -3.046   2.219  0.00  0.00    +0.000 A 
ATOM     14  C   UNL     1       3.599  -3.033   2.401  0.00  0.00    +0.000 A 
ATOM     15  C   UNL     1       3.049  -3.908   3.313  0.00  0.00    +0.000 A 
ATOM     16  C   UNL     1       3.878  -4.811   3.983  0.00  0.00    +0.000 A 
ATOM     17  C   UNL     1       5.245  -4.843   3.756  0.00  0.00    +0.000 A 
ATOM     18  C   UNL     1       5.778  -3.986   2.841  0.00  0.00    +0.000 A 
ENDBRANCH  12  13
BRANCH   2  19
ATOM     19  O   UNL     1       4.961  -1.582  -1.643  0.00  0.00    +0.000 OA
BRANCH  19  20
ATOM     20  C   UNL     1       4.442  -0.221  -1.313  0.00  0.00    +0.000 C 
ATOM     21  C   UNL     1       4.884   0.192   0.042  0.00  0.00    +0.000 C 
ATOM     22  N   UNL     1       5.782   1.305   0.294  0.00  0.00    +0.000 NA
ATOM     23  C   UNL     1       6.960   1.158  -0.576  0.00  0.00    +0.000 C 
ATOM     24  C   UNL     1       6.511   1.004  -2.034  0.00  0.00    +0.000 C 
ATOM     25  C   UNL     1       4.964   0.989  -2.117  0.00  0.00    +0.000 C 
ATOM     26  C   UNL     1       4.438   2.307  -1.387  0.00  0.00    +0.000 C 
ATOM     27  C   UNL     1       4.974   2.454   0.048  0.00  0.00    +0.000 C 
ENDBRANCH  19  20
ENDBRANCH   2  19
TORSDOF 3
