REMARK  Name = Solriamfetol
REMARK  6 active torsions:
REMARK  status: ('A' for Active; 'I' for Inactive)
REMARK    1  A    between atoms: N_1  and  C_2
REMARK    2  A    between atoms: C_2  and  C_3
REMARK    3  A    between atoms: C_2  and  C_8
REMARK    4  A    between atoms: C_3  and  O_4
REMARK    5  A    between atoms: O_4  and  C_5
REMARK    6  A    between atoms: C_8  and  C_9
REMARK                            x       y       z     vdW  Elec       q    Type
REMARK                         _______ _______ _______ _____ _____    ______ ____
ROOT
ATOM      1  C   UNL     1       2.378  -0.074  -0.001  0.00  0.00    +0.000 C 
ENDROOT
BRANCH   1   2
ATOM      2  N   UNL     1       0.905  -0.084   0.072  0.00  0.00    +0.000 NA
ATOM      3  H   UNL     1       0.573  -0.818  -0.562  0.00  0.00    +0.000 HD
ATOM      4  H   UNL     1       0.539   0.784  -0.317  0.00  0.00    +0.000 HD
ENDBRANCH   1   2
BRANCH   1   5
ATOM      5  C   UNL     1       2.830   0.063  -1.469  0.00  0.00    +0.000 C 
BRANCH   5   6
ATOM      6  O   UNL     1       2.269  -0.908  -2.355  0.00  0.00    +0.000 OA
BRANCH   6   7
ATOM      7  C   UNL     1       2.726  -0.949  -3.640  0.00  0.00    +0.000 C 
ATOM      8  N   UNL     1       3.554   0.048  -4.070  0.00  0.00    +0.000 N 
ATOM      9  O   UNL     1       2.390  -1.842  -4.415  0.00  0.00    +0.000 OA
ATOM     10  H   UNL     1       3.895   0.822  -3.524  0.00  0.00    +0.000 HD
ATOM     11  H   UNL     1       3.819   0.018  -5.046  0.00  0.00    +0.000 HD
ENDBRANCH   6   7
ENDBRANCH   5   6
ENDBRANCH   1   5
BRANCH   1  12
ATOM     12  C   UNL     1       2.936   1.082   0.886  0.00  0.00    +0.000 C 
BRANCH  12  13
ATOM     13  C   UNL     1       4.451   1.129   0.951  0.00  0.00    +0.000 A 
ATOM     14  C   UNL     1       5.233   1.270  -0.204  0.00  0.00    +0.000 A 
ATOM     15  C   UNL     1       6.587   0.964  -0.201  0.00  0.00    +0.000 A 
ATOM     16  C   UNL     1       7.234   0.794   1.011  0.00  0.00    +0.000 A 
ATOM     17  C   UNL     1       6.503   0.835   2.198  0.00  0.00    +0.000 A 
ATOM     18  C   UNL     1       5.112   0.967   2.169  0.00  0.00    +0.000 A 
ENDBRANCH  12  13
ENDBRANCH   1  12
TORSDOF 6
