REMARK  Name = Sonidegib
REMARK  9 active torsions:
REMARK  status: ('A' for Active; 'I' for Inactive)
REMARK    1  A    between atoms: C_2  and  C_3
REMARK    2  A    between atoms: N_5  and  C_11
REMARK    3  A    between atoms: C_7  and  C_9
REMARK    4  A    between atoms: C_14  and  N_15
REMARK    5  A    between atoms: C_16  and  C_18
REMARK    6  A    between atoms: C_22  and  C_25
REMARK    7  A    between atoms: C_23  and  C_24
REMARK    8  A    between atoms: C_28  and  O_29
REMARK    9  A    between atoms: O_29  and  C_30
REMARK                            x       y       z     vdW  Elec       q    Type
REMARK                         _______ _______ _______ _____ _____    ______ ____
ROOT
ATOM      1  N   UNL     1      -1.153  -5.769  -3.499  0.00  0.00    +0.000 N 
ATOM      2  C   UNL     1      -0.691  -6.925  -4.112  0.00  0.00    +0.000 C 
ATOM      3  O   UNL     1      -1.468  -7.548  -4.864  0.00  0.00    +0.000 OA
ATOM      4  H   UNL     1      -2.065  -5.879  -3.067  0.00  0.00    +0.000 HD
ENDROOT
BRANCH   2   5
ATOM      5  C   UNL     1       0.681  -7.516  -3.822  0.00  0.00    +0.000 A 
ATOM      6  C   UNL     1       1.121  -8.572  -4.653  0.00  0.00    +0.000 A 
ATOM      7  C   UNL     1       2.394  -9.131  -4.500  0.00  0.00    +0.000 A 
ATOM      8  C   UNL     1       3.275  -8.604  -3.561  0.00  0.00    +0.000 A 
ATOM      9  C   UNL     1       2.870  -7.583  -2.695  0.00  0.00    +0.000 A 
ATOM     10  C   UNL     1       1.531  -7.116  -2.754  0.00  0.00    +0.000 A 
ATOM     11  C   UNL     1       1.071  -6.208  -1.652  0.00  0.00    +0.000 C 
BRANCH   9  12
ATOM     12  C   UNL     1       3.811  -7.076  -1.683  0.00  0.00    +0.000 A 
ATOM     13  C   UNL     1       5.052  -6.520  -2.002  0.00  0.00    +0.000 A 
ATOM     14  C   UNL     1       5.905  -6.098  -0.973  0.00  0.00    +0.000 A 
ATOM     15  C   UNL     1       5.466  -6.065   0.357  0.00  0.00    +0.000 A 
ATOM     16  C   UNL     1       4.200  -6.536   0.661  0.00  0.00    +0.000 A 
ATOM     17  C   UNL     1       3.437  -7.115  -0.331  0.00  0.00    +0.000 A 
BRANCH  15  18
ATOM     18  O   UNL     1       6.341  -5.567   1.279  0.00  0.00    +0.000 OA
BRANCH  18  19
ATOM     19  C   UNL     1       5.842  -5.442   2.606  0.00  0.00    +0.000 C 
ATOM     20  F   UNL     1       4.770  -4.618   2.649  0.00  0.00    +0.000 F 
ATOM     21  F   UNL     1       5.501  -6.646   3.119  0.00  0.00    +0.000 F 
ATOM     22  F   UNL     1       6.805  -4.914   3.389  0.00  0.00    +0.000 F 
ENDBRANCH  18  19
ENDBRANCH  15  18
ENDBRANCH   9  12
ENDBRANCH   2   5
BRANCH   1  26
ATOM     23  C   UNL     1       1.310  -2.622  -2.296  0.00  0.00    +0.000 A 
ATOM     24  C   UNL     1       1.657  -3.406  -3.401  0.00  0.00    +0.000 A 
ATOM     25  C   UNL     1       0.755  -4.307  -3.976  0.00  0.00    +0.000 A 
ATOM     26  C   UNL     1      -0.466  -4.531  -3.335  0.00  0.00    +0.000 A 
ATOM     27  C   UNL     1      -0.768  -3.695  -2.242  0.00  0.00    +0.000 A 
ATOM     28  N   UNL     1       0.099  -2.765  -1.710  0.00  0.00    +0.000 NA
BRANCH  23  32
ATOM     29  C   UNL     1       2.045   0.027  -0.111  0.00  0.00    +0.000 C 
ATOM     30  C   UNL     1       0.555   0.037   0.193  0.00  0.00    +0.000 C 
ATOM     31  C   UNL     1       2.545  -1.384  -0.465  0.00  0.00    +0.000 C 
ATOM     32  N   UNL     1       2.284  -1.738  -1.858  0.00  0.00    +0.000 N 
ATOM     33  C   UNL     1       2.685  -0.715  -2.831  0.00  0.00    +0.000 C 
ATOM     34  C   UNL     1       2.129   0.669  -2.455  0.00  0.00    +0.000 C 
ATOM     35  C   UNL     1       0.650   0.826  -2.798  0.00  0.00    +0.000 C 
ATOM     36  O   UNL     1       2.416   1.020  -1.090  0.00  0.00    +0.000 OA
ENDBRANCH  23  32
ENDBRANCH   1  26
TORSDOF 6
