REMARK  Name = Sorafenib
REMARK  7 active torsions:
REMARK  status: ('A' for Active; 'I' for Inactive)
REMARK    1  A    between atoms: C_1  and  N_2
REMARK    2  A    between atoms: C_3  and  C_5
REMARK    3  A    between atoms: C_9  and  O_10
REMARK    4  A    between atoms: O_10  and  C_11
REMARK    5  A    between atoms: C_14  and  N_15
REMARK    6  A    between atoms: N_18  and  C_19
REMARK    7  A    between atoms: C_21  and  C_26
REMARK                            x       y       z     vdW  Elec       q    Type
REMARK                         _______ _______ _______ _____ _____    ______ ____
ROOT
ATOM      1  C   UNL     1       8.880   0.405  -1.808  0.00  0.00    +0.000 A 
ATOM      2  C   UNL     1       9.674   1.152  -2.685  0.00  0.00    +0.000 A 
ATOM      3  C   UNL     1      11.083   0.966  -2.737  0.00  0.00    +0.000 A 
ATOM      4  C   UNL     1      11.721   0.076  -1.858  0.00  0.00    +0.000 A 
ATOM      5  C   UNL     1      10.886  -0.684  -1.029  0.00  0.00    +0.000 A 
ATOM      6  C   UNL     1       9.496  -0.549  -1.016  0.00  0.00    +0.000 A 
ENDROOT
BRANCH   4   7
ATOM      7  N   UNL     1      13.159  -0.028  -1.793  0.00  0.00    +0.000 N 
ATOM      8  C   UNL     1      13.829  -0.811  -0.855  0.00  0.00    +0.000 C 
ATOM      9  O   UNL     1      13.260  -1.497  -0.005  0.00  0.00    +0.000 OA
ATOM     10  N   UNL     1      15.216  -0.772  -0.886  0.00  0.00    +0.000 N 
ATOM     11  H   UNL     1      13.692   0.559  -2.419  0.00  0.00    +0.000 HD
ATOM     12  H   UNL     1      15.688  -0.010  -1.350  0.00  0.00    +0.000 HD
BRANCH  10  13
ATOM     13  C   UNL     1      15.992  -1.626  -0.034  0.00  0.00    +0.000 A 
ATOM     14  C   UNL     1      17.217  -1.209   0.498  0.00  0.00    +0.000 A 
ATOM     15  C   UNL     1      18.066  -2.117   1.201  0.00  0.00    +0.000 A 
ATOM     16  C   UNL     1      17.604  -3.410   1.470  0.00  0.00    +0.000 A 
ATOM     17 CL   UNL     1      18.464  -4.565   2.422  0.00  0.00    +0.000 Cl
ATOM     18  C   UNL     1      16.375  -3.821   0.964  0.00  0.00    +0.000 A 
ATOM     19  C   UNL     1      15.586  -2.942   0.220  0.00  0.00    +0.000 A 
BRANCH  15  20
ATOM     20  C   UNL     1      19.477  -1.682   1.504  0.00  0.00    +0.000 C 
ATOM     21  F   UNL     1      20.095  -1.244   0.366  0.00  0.00    +0.000 F 
ATOM     22  F   UNL     1      19.537  -0.639   2.375  0.00  0.00    +0.000 F 
ATOM     23  F   UNL     1      20.311  -2.632   2.003  0.00  0.00    +0.000 F 
ENDBRANCH  15  20
ENDBRANCH  10  13
ENDBRANCH   4   7
BRANCH   1  24
ATOM     24  O   UNL     1       7.509   0.570  -1.817  0.00  0.00    +0.000 OA
BRANCH  24  29
ATOM     25  C   UNL     1       4.727   1.028   0.505  0.00  0.00    +0.000 A 
ATOM     26  N   UNL     1       5.334   1.337   1.680  0.00  0.00    +0.000 NA
ATOM     27  C   UNL     1       6.680   1.356   1.690  0.00  0.00    +0.000 A 
ATOM     28  C   UNL     1       7.461   1.090   0.582  0.00  0.00    +0.000 A 
ATOM     29  C   UNL     1       6.833   0.774  -0.621  0.00  0.00    +0.000 A 
ATOM     30  C   UNL     1       5.432   0.734  -0.663  0.00  0.00    +0.000 A 
BRANCH  25  33
ATOM     31  C   UNL     1       1.100  -0.001  -0.090  0.00  0.00    +0.000 C 
ATOM     32  N   UNL     1       2.545   0.053  -0.116  0.00  0.00    +0.000 N 
ATOM     33  C   UNL     1       3.222   1.077   0.526  0.00  0.00    +0.000 C 
ATOM     34  O   UNL     1       2.630   1.994   1.104  0.00  0.00    +0.000 OA
ATOM     35  H   UNL     1       3.054  -0.748  -0.466  0.00  0.00    +0.000 HD
ENDBRANCH  25  33
ENDBRANCH  24  29
ENDBRANCH   1  24
TORSDOF 6
