REMARK  Name = Sorbitol
REMARK  11 active torsions:
REMARK  status: ('A' for Active; 'I' for Inactive)
REMARK    1  A    between atoms: O_1  and  C_2
REMARK    2  A    between atoms: C_2  and  C_3
REMARK    3  A    between atoms: C_3  and  O_4
REMARK    4  A    between atoms: C_3  and  C_5
REMARK    5  A    between atoms: C_5  and  O_6
REMARK    6  A    between atoms: C_5  and  C_7
REMARK    7  A    between atoms: C_7  and  O_8
REMARK    8  A    between atoms: C_7  and  C_9
REMARK    9  A    between atoms: C_9  and  O_10
REMARK   10  A    between atoms: C_9  and  C_11
REMARK   11  A    between atoms: C_11  and  O_12
REMARK                            x       y       z     vdW  Elec       q    Type
REMARK                         _______ _______ _______ _____ _____    ______ ____
ROOT
ATOM      1  C   UNL     1       8.373   1.967   0.475  0.00  0.00    +0.000 C 
ENDROOT
BRANCH   1   2
ATOM      2  O   UNL     1       8.673   0.657   0.995  0.00  0.00    +0.000 OA
ATOM      3  H   UNL     1       8.301   0.025   0.347  0.00  0.00    +0.000 HD
ENDBRANCH   1   2
BRANCH   1   4
ATOM      4  C   UNL     1       8.714   1.985  -1.032  0.00  0.00    +0.000 C 
BRANCH   4   5
ATOM      5  O   UNL     1       7.978   0.940  -1.690  0.00  0.00    +0.000 OA
ATOM      6  H   UNL     1       7.071   1.320  -1.770  0.00  0.00    +0.000 HD
ENDBRANCH   4   5
BRANCH   4   7
ATOM      7  C   UNL     1       8.418   3.341  -1.694  0.00  0.00    +0.000 C 
BRANCH   7   8
ATOM      8  O   UNL     1       7.035   3.442  -2.013  0.00  0.00    +0.000 OA
ATOM      9  H   UNL     1       6.864   4.349  -2.342  0.00  0.00    +0.000 HD
ENDBRANCH   7   8
ENDBRANCH   4   7
ENDBRANCH   1   4
BRANCH   1  10
ATOM     10  C   UNL     1       6.900   2.326   0.801  0.00  0.00    +0.000 C 
BRANCH  10  11
ATOM     11  O   UNL     1       6.002   1.702  -0.136  0.00  0.00    +0.000 OA
ATOM     12  H   UNL     1       5.945   0.758   0.095  0.00  0.00    +0.000 HD
ENDBRANCH  10  11
BRANCH  10  13
ATOM     13  C   UNL     1       6.450   1.915   2.221  0.00  0.00    +0.000 C 
BRANCH  13  14
ATOM     14  O   UNL     1       5.016   1.948   2.317  0.00  0.00    +0.000 OA
ATOM     15  H   UNL     1       4.710   2.731   1.826  0.00  0.00    +0.000 HD
ENDBRANCH  13  14
BRANCH  13  16
ATOM     16  C   UNL     1       7.020   2.819   3.312  0.00  0.00    +0.000 C 
BRANCH  16  17
ATOM     17  O   UNL     1       8.437   2.838   3.340  0.00  0.00    +0.000 OA
ATOM     18  H   UNL     1       8.743   1.912   3.379  0.00  0.00    +0.000 HD
ENDBRANCH  16  17
ENDBRANCH  13  16
ENDBRANCH  10  13
ENDBRANCH   1  10
TORSDOF 11
