REMARK  Name = Sotagliflozin
REMARK  11 active torsions:
REMARK  status: ('A' for Active; 'I' for Inactive)
REMARK    1  A    between atoms: C_1  and  C_2
REMARK    2  A    between atoms: C_2  and  O_3
REMARK    3  A    between atoms: O_3  and  C_4
REMARK    4  A    between atoms: C_7  and  C_8
REMARK    5  A    between atoms: C_8  and  C_9
REMARK    6  A    between atoms: C_11  and  C_16
REMARK    7  A    between atoms: C_18  and  S_19
REMARK    8  A    between atoms: S_19  and  C_20
REMARK    9  A    between atoms: C_21  and  O_22
REMARK   10  A    between atoms: C_23  and  O_24
REMARK   11  A    between atoms: C_25  and  O_26
REMARK                            x       y       z     vdW  Elec       q    Type
REMARK                         _______ _______ _______ _____ _____    ______ ____
ROOT
ATOM      1  C   UNL     1      14.337  -1.474  -1.163  0.00  0.00    +0.000 A 
ATOM      2  C   UNL     1      13.603  -0.383  -1.584  0.00  0.00    +0.000 A 
ATOM      3  C   UNL     1      12.443  -0.015  -0.910  0.00  0.00    +0.000 A 
ATOM      4  C   UNL     1      11.839  -0.901  -0.016  0.00  0.00    +0.000 A 
ATOM      5  C   UNL     1      12.521  -2.061   0.339  0.00  0.00    +0.000 A 
ATOM      6  C   UNL     1      13.801  -2.303  -0.165  0.00  0.00    +0.000 A 
ATOM      7 CL   UNL     1      14.637  -3.709   0.387  0.00  0.00    +0.000 Cl
ENDROOT
BRANCH   3   8
ATOM      8  C   UNL     1      12.054   1.425  -1.047  0.00  0.00    +0.000 C 
ATOM      9  O   UNL     1      11.902   1.671  -2.444  0.00  0.00    +0.000 OA
ATOM     10  C   UNL     1      11.587   3.030  -2.642  0.00  0.00    +0.000 C 
ATOM     11  C   UNL     1      12.725   3.996  -2.339  0.00  0.00    +0.000 C 
ATOM     12  C   UNL     1      13.034   3.796  -0.840  0.00  0.00    +0.000 C 
ATOM     13  C   UNL     1      13.220   2.309  -0.498  0.00  0.00    +0.000 C 
BRANCH  10  14
ATOM     14  S   UNL     1      10.678   3.276  -4.166  0.00  0.00    +0.000 S 
ATOM     15  C   UNL     1       9.145   3.527  -3.264  0.00  0.00    +0.000 C 
ENDBRANCH  10  14
BRANCH  11  16
ATOM     16  O   UNL     1      12.338   5.361  -2.558  0.00  0.00    +0.000 OA
ATOM     17  H   UNL     1      11.558   5.562  -2.011  0.00  0.00    +0.000 HD
ENDBRANCH  11  16
BRANCH  12  18
ATOM     18  O   UNL     1      14.193   4.546  -0.474  0.00  0.00    +0.000 OA
ATOM     19  H   UNL     1      14.928   4.249  -1.038  0.00  0.00    +0.000 HD
ENDBRANCH  12  18
BRANCH  13  20
ATOM     20  O   UNL     1      13.405   2.124   0.907  0.00  0.00    +0.000 OA
ATOM     21  H   UNL     1      12.601   2.397   1.376  0.00  0.00    +0.000 HD
ENDBRANCH  13  20
ENDBRANCH   3   8
BRANCH   1  22
ATOM     22  C   UNL     1      15.597  -1.773  -1.926  0.00  0.00    +0.000 C 
BRANCH  22  26
ATOM     23  C   UNL     1      15.179  -5.208  -4.489  0.00  0.00    +0.000 A 
ATOM     24  C   UNL     1      16.404  -4.551  -4.369  0.00  0.00    +0.000 A 
ATOM     25  C   UNL     1      16.552  -3.453  -3.526  0.00  0.00    +0.000 A 
ATOM     26  C   UNL     1      15.437  -2.962  -2.838  0.00  0.00    +0.000 A 
ATOM     27  C   UNL     1      14.203  -3.609  -3.010  0.00  0.00    +0.000 A 
ATOM     28  C   UNL     1      14.077  -4.746  -3.776  0.00  0.00    +0.000 A 
BRANCH  23  29
ATOM     29  O   UNL     1      15.148  -6.329  -5.262  0.00  0.00    +0.000 OA
BRANCH  29  31
ATOM     30  C   UNL     1      14.003  -7.886  -6.636  0.00  0.00    +0.000 C 
ATOM     31  C   UNL     1      13.914  -6.542  -5.950  0.00  0.00    +0.000 C 
ENDBRANCH  29  31
ENDBRANCH  23  29
ENDBRANCH  22  26
ENDBRANCH   1  22
TORSDOF 9
