REMARK  Name = Sotalol
REMARK  10 active torsions:
REMARK  status: ('A' for Active; 'I' for Inactive)
REMARK    1  A    between atoms: C_1  and  C_2
REMARK    2  A    between atoms: C_2  and  C_3
REMARK    3  A    between atoms: C_2  and  N_4
REMARK    4  A    between atoms: N_4  and  C_5
REMARK    5  A    between atoms: C_5  and  C_6
REMARK    6  A    between atoms: C_6  and  O_7
REMARK    7  A    between atoms: C_6  and  C_8
REMARK    8  A    between atoms: C_11  and  N_12
REMARK    9  A    between atoms: N_12  and  S_13
REMARK   10  A    between atoms: S_13  and  C_14
REMARK                            x       y       z     vdW  Elec       q    Type
REMARK                         _______ _______ _______ _____ _____    ______ ____
ROOT
ATOM      1  C   UNL     1       6.543   1.441   2.480  0.00  0.00    +0.000 A 
ATOM      2  C   UNL     1       7.327   0.934   1.426  0.00  0.00    +0.000 A 
ATOM      3  C   UNL     1       8.714   0.813   1.549  0.00  0.00    +0.000 A 
ATOM      4  C   UNL     1       9.349   1.288   2.694  0.00  0.00    +0.000 A 
ATOM      5  C   UNL     1       8.568   1.795   3.731  0.00  0.00    +0.000 A 
ATOM      6  C   UNL     1       7.190   1.899   3.621  0.00  0.00    +0.000 A 
ENDROOT
BRANCH   4   7
ATOM      7  N   UNL     1      10.768   1.375   2.697  0.00  0.00    +0.000 N 
ATOM      8  H   UNL     1      11.307   0.963   1.937  0.00  0.00    +0.000 HD
BRANCH   7   9
ATOM      9  S   UNL     1      11.663   1.914   4.000  0.00  0.00    +0.000 S 
ATOM     10  C   UNL     1      11.234   3.653   4.122  0.00  0.00    +0.000 C 
ATOM     11  O   UNL     1      11.224   1.233   5.193  0.00  0.00    +0.000 OA
ATOM     12  O   UNL     1      13.051   1.843   3.576  0.00  0.00    +0.000 OA
ENDBRANCH   7   9
ENDBRANCH   4   7
BRANCH   1  13
ATOM     13  C   UNL     1       5.028   1.467   2.476  0.00  0.00    +0.000 C 
BRANCH  13  14
ATOM     14  O   UNL     1       4.545   0.838   3.672  0.00  0.00    +0.000 OA
ATOM     15  H   UNL     1       4.929  -0.055   3.692  0.00  0.00    +0.000 HD
ENDBRANCH  13  14
BRANCH  13  16
ATOM     16  C   UNL     1       4.466   0.715   1.271  0.00  0.00    +0.000 C 
BRANCH  16  17
ATOM     17  N   UNL     1       3.009   0.692   1.228  0.00  0.00    +0.000 NA
ATOM     18  H   UNL     1       2.664   0.270   2.094  0.00  0.00    +0.000 HD
BRANCH  17  20
ATOM     19  C   UNL     1       1.016  -0.050   0.084  0.00  0.00    +0.000 C 
ATOM     20  C   UNL     1       2.538  -0.043   0.053  0.00  0.00    +0.000 C 
ATOM     21  C   UNL     1       3.022   0.610  -1.248  0.00  0.00    +0.000 C 
ENDBRANCH  17  20
ENDBRANCH  16  17
ENDBRANCH  13  16
ENDBRANCH   1  13
TORSDOF 7
