REMARK  Name = Sotorasib
REMARK  9 active torsions:
REMARK  status: ('A' for Active; 'I' for Inactive)
REMARK    1  A    between atoms: C_1  and  C_2
REMARK    2  A    between atoms: C_2  and  C_3
REMARK    3  A    between atoms: C_2  and  C_4
REMARK    4  A    between atoms: C_8  and  C_9
REMARK    5  A    between atoms: C_10  and  N_11
REMARK    6  A    between atoms: C_21  and  C_22
REMARK    7  A    between atoms: C_23  and  C_25
REMARK    8  A    between atoms: C_31  and  C_34
REMARK    9  A    between atoms: C_35  and  O_36
REMARK                            x       y       z     vdW  Elec       q    Type
REMARK                         _______ _______ _______ _____ _____    ______ ____
ROOT
ATOM      1  N   UNL     1       1.035  -2.335  -1.030  0.00  0.00    +0.000 N 
ATOM      2  C   UNL     1      -0.214  -2.601  -0.434  0.00  0.00    +0.000 A 
ATOM      3  O   UNL     1      -0.294  -3.071   0.708  0.00  0.00    +0.000 OA
ATOM      4  N   UNL     1      -1.382  -2.286  -1.102  0.00  0.00    +0.000 NA
ATOM      5  C   UNL     1      -1.387  -1.664  -2.241  0.00  0.00    +0.000 A 
ATOM      6  N   UNL     1      -2.586  -1.344  -2.891  0.00  0.00    +0.000 N 
ATOM      7  C   UNL     1      -2.895  -1.832  -4.256  0.00  0.00    +0.000 C 
ATOM      8  C   UNL     1      -4.256  -2.548  -4.329  0.00  0.00    +0.000 C 
ATOM      9  N   UNL     1      -5.327  -1.739  -3.730  0.00  0.00    +0.000 N 
ATOM     10  C   UNL     1      -5.026  -1.368  -2.339  0.00  0.00    +0.000 C 
ATOM     11  C   UNL     1      -3.686  -0.596  -2.229  0.00  0.00    +0.000 C 
ATOM     12  C   UNL     1      -3.839   0.797  -2.864  0.00  0.00    +0.000 C 
ATOM     13  C   UNL     1      -6.433  -1.383  -4.491  0.00  0.00    +0.000 C 
ATOM     14  O   UNL     1      -6.555  -1.728  -5.666  0.00  0.00    +0.000 OA
ATOM     15  C   UNL     1      -0.107  -1.253  -2.861  0.00  0.00    +0.000 A 
ATOM     16  C   UNL     1      -0.095  -0.415  -3.974  0.00  0.00    +0.000 A 
ATOM     17  C   UNL     1       1.103   0.053  -4.461  0.00  0.00    +0.000 A 
ATOM     18  F   UNL     1       1.103   0.782  -5.583  0.00  0.00    +0.000 F 
ATOM     19  C   UNL     1       2.276  -0.296  -3.814  0.00  0.00    +0.000 A 
ATOM     20  N   UNL     1       2.287  -1.171  -2.757  0.00  0.00    +0.000 NA
ATOM     21  C   UNL     1       1.093  -1.607  -2.253  0.00  0.00    +0.000 A 
ENDROOT
BRANCH   1  28
ATOM     22  C   UNL     1       2.992  -1.386   0.259  0.00  0.00    +0.000 A 
ATOM     23  N   UNL     1       4.163  -1.569   0.951  0.00  0.00    +0.000 NA
ATOM     24  C   UNL     1       4.563  -2.827   1.230  0.00  0.00    +0.000 A 
ATOM     25  C   UNL     1       3.849  -3.945   0.854  0.00  0.00    +0.000 A 
ATOM     26  C   UNL     1       2.677  -3.776   0.102  0.00  0.00    +0.000 A 
ATOM     27  C   UNL     1       1.923  -4.992  -0.352  0.00  0.00    +0.000 C 
ATOM     28  C   UNL     1       2.242  -2.477  -0.246  0.00  0.00    +0.000 A 
BRANCH  22  30
ATOM     29  C   UNL     1       1.046   0.297   0.239  0.00  0.00    +0.000 C 
ATOM     30  C   UNL     1       2.557   0.073   0.114  0.00  0.00    +0.000 C 
ATOM     31  C   UNL     1       3.158   0.997   1.182  0.00  0.00    +0.000 C 
ENDBRANCH  22  30
ENDBRANCH   1  28
BRANCH  19  32
ATOM     32  C   UNL     1       3.574   0.168  -4.303  0.00  0.00    +0.000 A 
ATOM     33  C   UNL     1       4.588  -0.738  -4.635  0.00  0.00    +0.000 A 
ATOM     34  C   UNL     1       5.802  -0.309  -5.167  0.00  0.00    +0.000 A 
ATOM     35  C   UNL     1       6.032   1.049  -5.387  0.00  0.00    +0.000 A 
ATOM     36  C   UNL     1       5.043   1.975  -5.071  0.00  0.00    +0.000 A 
ATOM     37  C   UNL     1       3.833   1.533  -4.533  0.00  0.00    +0.000 A 
ATOM     38  F   UNL     1       2.900   2.457  -4.247  0.00  0.00    +0.000 F 
BRANCH  33  39
ATOM     39  O   UNL     1       4.428  -2.094  -4.507  0.00  0.00    +0.000 OA
ATOM     40  H   UNL     1       3.622  -2.260  -3.981  0.00  0.00    +0.000 HD
ENDBRANCH  33  39
ENDBRANCH  19  32
BRANCH  13  41
ATOM     41  C   UNL     1      -7.499  -0.542  -3.859  0.00  0.00    +0.000 C 
ATOM     42  C   UNL     1      -8.600  -0.172  -4.531  0.00  0.00    +0.000 C 
ENDBRANCH  13  41
TORSDOF 5
