REMARK  Name = Sparfloxacin
REMARK  7 active torsions:
REMARK  status: ('A' for Active; 'I' for Inactive)
REMARK    1  A    between atoms: C_1  and  C_2
REMARK    2  A    between atoms: N_4  and  C_9
REMARK    3  A    between atoms: C_6  and  C_7
REMARK    4  A    between atoms: C_12  and  N_13
REMARK    5  A    between atoms: C_17  and  C_26
REMARK    6  A    between atoms: N_19  and  C_20
REMARK    7  A    between atoms: C_26  and  O_27
REMARK                            x       y       z     vdW  Elec       q    Type
REMARK                         _______ _______ _______ _____ _____    ______ ____
ROOT
ATOM      1  C   UNL     1       1.827   1.481  -3.271  0.00  0.00    +0.000 A 
ATOM      2  C   UNL     1       2.312   2.749  -3.610  0.00  0.00    +0.000 A 
ATOM      3  F   UNL     1       3.463   3.180  -3.060  0.00  0.00    +0.000 F 
ATOM      4  C   UNL     1       1.687   3.572  -4.557  0.00  0.00    +0.000 A 
ATOM      5  C   UNL     1       0.493   3.121  -5.162  0.00  0.00    +0.000 A 
ATOM      6  C   UNL     1      -0.180   4.003  -6.166  0.00  0.00    +0.000 A 
ATOM      7  O   UNL     1       0.315   5.086  -6.466  0.00  0.00    +0.000 OA
ATOM      8  C   UNL     1      -1.450   3.561  -6.785  0.00  0.00    +0.000 A 
ATOM      9  C   UNL     1      -1.879   2.358  -6.384  0.00  0.00    +0.000 A 
ATOM     10  N   UNL     1      -1.277   1.458  -5.512  0.00  0.00    +0.000 N 
ATOM     11  C   UNL     1      -0.065   1.858  -4.852  0.00  0.00    +0.000 A 
ATOM     12  C   UNL     1       0.632   1.066  -3.906  0.00  0.00    +0.000 A 
ATOM     13  F   UNL     1       0.145  -0.138  -3.556  0.00  0.00    +0.000 F 
ENDROOT
BRANCH   1  17
ATOM     14  C   UNL     1       2.932   0.358   1.394  0.00  0.00    +0.000 C 
ATOM     15  C   UNL     1       2.443   0.017  -0.010  0.00  0.00    +0.000 C 
ATOM     16  C   UNL     1       2.914   1.092  -1.043  0.00  0.00    +0.000 C 
ATOM     17  N   UNL     1       2.500   0.663  -2.382  0.00  0.00    +0.000 N 
ATOM     18  C   UNL     1       2.945  -0.673  -2.774  0.00  0.00    +0.000 C 
ATOM     19  C   UNL     1       2.460  -1.698  -1.720  0.00  0.00    +0.000 C 
ATOM     20  C   UNL     1       2.971  -3.086  -2.081  0.00  0.00    +0.000 C 
ATOM     21  N   UNL     1       2.908  -1.356  -0.346  0.00  0.00    +0.000 NA
ATOM     22  H   UNL     1       3.928  -1.359  -0.331  0.00  0.00    +0.000 HD
ENDBRANCH   1  17
BRANCH   4  23
ATOM     23  N   UNL     1       2.243   4.814  -4.857  0.00  0.00    +0.000 N 
ATOM     24  H   UNL     1       3.129   5.112  -4.478  0.00  0.00    +0.000 HD
ATOM     25  H   UNL     1       1.786   5.380  -5.582  0.00  0.00    +0.000 HD
ENDBRANCH   4  23
BRANCH  10  26
ATOM     26  C   UNL     1      -2.049   0.247  -5.093  0.00  0.00    +0.000 C 
ATOM     27  C   UNL     1      -3.383  -0.083  -5.742  0.00  0.00    +0.000 C 
ATOM     28  C   UNL     1      -2.236  -1.032  -5.873  0.00  0.00    +0.000 C 
ENDBRANCH  10  26
BRANCH   8  29
ATOM     29  C   UNL     1      -2.153   4.427  -7.772  0.00  0.00    +0.000 C 
ATOM     30  O   UNL     1      -1.731   5.520  -8.136  0.00  0.00    +0.000 OA
BRANCH  29  31
ATOM     31  O   UNL     1      -3.308   3.967  -8.298  0.00  0.00    +0.000 OA
ATOM     32  H   UNL     1      -3.660   3.105  -8.034  0.00  0.00    +0.000 HD
ENDBRANCH  29  31
ENDBRANCH   8  29
TORSDOF 5
