REMARK  Name = Spectinomycin
REMARK  8 active torsions:
REMARK  status: ('A' for Active; 'I' for Inactive)
REMARK    1  A    between atoms: C_4  and  C_5
REMARK    2  A    between atoms: C_9  and  O_10
REMARK    3  A    between atoms: C_14  and  N_15
REMARK    4  A    between atoms: N_15  and  C_16
REMARK    5  A    between atoms: C_17  and  O_18
REMARK    6  A    between atoms: C_19  and  N_20
REMARK    7  A    between atoms: N_20  and  C_21
REMARK    8  A    between atoms: C_22  and  O_23
REMARK                            x       y       z     vdW  Elec       q    Type
REMARK                         _______ _______ _______ _____ _____    ______ ____
ROOT
ATOM      1  C   UNL     1       1.956  -0.103   0.120  0.00  0.00    +0.000 C 
ATOM      2  O   UNL     1       2.160   1.013   0.984  0.00  0.00    +0.000 OA
ATOM      3  C   UNL     1       3.540   1.417   1.018  0.00  0.00    +0.000 C 
ATOM      4  C   UNL     1       4.375   0.199   1.566  0.00  0.00    +0.000 C 
ATOM      5  C   UNL     1       4.566   1.858  -0.008  0.00  0.00    +0.000 C 
ATOM      6  C   UNL     1       4.411   0.643  -1.103  0.00  0.00    +0.000 C 
ATOM      7  O   UNL     1       5.359   0.351  -1.807  0.00  0.00    +0.000 OA
ATOM      8  C   UNL     1       2.816  -0.146  -1.235  0.00  0.00    +0.000 C 
ATOM      9  O   UNL     1       2.517  -1.448  -1.788  0.00  0.00    +0.000 OA
ATOM     10  C   UNL     1       2.677  -2.608  -0.944  0.00  0.00    +0.000 C 
ATOM     11  C   UNL     1       2.113  -3.985  -1.504  0.00  0.00    +0.000 C 
ATOM     12  C   UNL     1       2.588  -5.145  -0.576  0.00  0.00    +0.000 C 
ATOM     13  C   UNL     1       2.178  -4.939   0.902  0.00  0.00    +0.000 C 
ATOM     14  C   UNL     1       2.534  -3.524   1.399  0.00  0.00    +0.000 C 
ATOM     15  C   UNL     1       1.983  -2.458   0.422  0.00  0.00    +0.000 C 
ATOM     16  O   UNL     1       2.194  -1.196   0.992  0.00  0.00    +0.000 OA
ENDROOT
BRANCH  11  17
ATOM     17  N   UNL     1       2.503  -4.343  -2.876  0.00  0.00    +0.000 NA
ATOM     18  C   UNL     1       1.965  -3.422  -3.854  0.00  0.00    +0.000 C 
ATOM     19  H   UNL     1       2.191  -5.294  -3.091  0.00  0.00    +0.000 HD
ENDBRANCH  11  17
BRANCH  13  20
ATOM     20  N   UNL     1       2.778  -5.939   1.808  0.00  0.00    +0.000 NA
ATOM     21  C   UNL     1       2.473  -7.303   1.405  0.00  0.00    +0.000 C 
ATOM     22  H   UNL     1       2.476  -5.758   2.768  0.00  0.00    +0.000 HD
ENDBRANCH  13  20
BRANCH   8  23
ATOM     23  O   UNL     1       2.150   0.698  -2.219  0.00  0.00    +0.000 OA
ATOM     24  H   UNL     1       2.388   1.623  -2.070  0.00  0.00    +0.000 HD
ENDBRANCH   8  23
BRANCH  12  25
ATOM     25  O   UNL     1       4.003  -5.353  -0.700  0.00  0.00    +0.000 OA
ATOM     26  H   UNL     1       4.479  -4.583  -0.356  0.00  0.00    +0.000 HD
ENDBRANCH  12  25
BRANCH  14  27
ATOM     27  O   UNL     1       1.996  -3.343   2.721  0.00  0.00    +0.000 OA
ATOM     28  H   UNL     1       1.028  -3.371   2.665  0.00  0.00    +0.000 HD
ENDBRANCH  14  27
TORSDOF 5
