REMARK  Name = Spironolactone
REMARK  5 active torsions:
REMARK  status: ('A' for Active; 'I' for Inactive)
REMARK    1  A    between atoms: C_11  and  C_12
REMARK    2  A    between atoms: C_19  and  S_30
REMARK    3  A    between atoms: C_28  and  C_29
REMARK    4  A    between atoms: S_30  and  C_31
REMARK    5  A    between atoms: C_31  and  C_32
REMARK                            x       y       z     vdW  Elec       q    Type
REMARK                         _______ _______ _______ _____ _____    ______ ____
ROOT
ATOM      1  C   UNL     1       1.988   0.042  -0.054  0.00  0.00    +0.000 C 
ATOM      2  C   UNL     1       2.458  -0.446  -1.425  0.00  0.00    +0.000 C 
ATOM      3  C   UNL     1       2.565   0.838  -2.277  0.00  0.00    +0.000 C 
ATOM      4  C   UNL     1       2.203   2.014  -1.326  0.00  0.00    +0.000 C 
ATOM      5  C   UNL     1       0.741   2.421  -1.511  0.00  0.00    +0.000 C 
ATOM      6  C   UNL     1       0.815   3.450  -2.613  0.00  0.00    +0.000 C 
ATOM      7  C   UNL     1       2.179   4.032  -2.409  0.00  0.00    +0.000 C 
ATOM      8  O   UNL     1       2.576   5.084  -2.872  0.00  0.00    +0.000 OA
ATOM      9  O   UNL     1       2.942   3.190  -1.652  0.00  0.00    +0.000 OA
ATOM     10  C   UNL     1       2.608   1.446   0.062  0.00  0.00    +0.000 C 
ATOM     11  C   UNL     1       4.160   1.438   0.185  0.00  0.00    +0.000 C 
ATOM     12  C   UNL     1       2.032   2.142   1.303  0.00  0.00    +0.000 C 
ATOM     13  C   UNL     1       2.298   1.319   2.568  0.00  0.00    +0.000 C 
ATOM     14  C   UNL     1       1.735  -0.119   2.463  0.00  0.00    +0.000 C 
ATOM     15  C   UNL     1       2.215  -0.866   1.167  0.00  0.00    +0.000 C 
ATOM     16  C   UNL     1       1.525  -2.271   1.035  0.00  0.00    +0.000 C 
ATOM     17  C   UNL     1       1.785  -3.065   2.323  0.00  0.00    +0.000 C 
ATOM     18  C   UNL     1       1.357  -2.344   3.568  0.00  0.00    +0.000 C 
ATOM     19  C   UNL     1       0.484  -2.935   4.403  0.00  0.00    +0.000 C 
ATOM     20  C   UNL     1       0.137  -2.324   5.700  0.00  0.00    +0.000 C 
ATOM     21  O   UNL     1      -0.709  -2.856   6.412  0.00  0.00    +0.000 OA
ATOM     22  C   UNL     1       0.938  -1.128   6.136  0.00  0.00    +0.000 C 
ATOM     23  C   UNL     1       1.224  -0.234   4.941  0.00  0.00    +0.000 C 
ATOM     24  C   UNL     1       1.953  -0.957   3.775  0.00  0.00    +0.000 C 
ATOM     25  C   UNL     1       3.450  -1.118   4.118  0.00  0.00    +0.000 C 
ENDROOT
BRANCH  16  26
ATOM     26  S   UNL     1      -0.266  -2.107   0.677  0.00  0.00    +0.000 S 
BRANCH  26  27
ATOM     27  C   UNL     1      -0.956  -3.701   0.473  0.00  0.00    +0.000 C 
ATOM     28  C   UNL     1      -0.119  -4.941   0.525  0.00  0.00    +0.000 C 
ATOM     29  O   UNL     1      -2.168  -3.789   0.287  0.00  0.00    +0.000 OA
ENDBRANCH  26  27
ENDBRANCH  16  26
TORSDOF 2
