REMARK  Name = Spirapril
REMARK  13 active torsions:
REMARK  status: ('A' for Active; 'I' for Inactive)
REMARK    1  A    between atoms: C_1  and  C_2
REMARK    2  A    between atoms: C_2  and  O_3
REMARK    3  A    between atoms: O_3  and  C_4
REMARK    4  A    between atoms: C_4  and  C_6
REMARK    5  A    between atoms: C_6  and  C_7
REMARK    6  A    between atoms: C_6  and  N_15
REMARK    7  A    between atoms: C_7  and  C_8
REMARK    8  A    between atoms: C_8  and  C_9
REMARK    9  A    between atoms: N_15  and  CA_16
REMARK   10  A    between atoms: CA_16  and  CB_17
REMARK   11  A    between atoms: CA_16  and  C_18
REMARK   12  A    between atoms: C_24  and  C_25
REMARK   13  A    between atoms: C_25  and  O_26
REMARK                            x       y       z     vdW  Elec       q    Type
REMARK                         _______ _______ _______ _____ _____    ______ ____
ROOT
ATOM      1  CA  ALA A   1       7.105  -3.036  -3.005  0.00  0.00    +0.000 C 
ATOM      2  CB  ALA A   1       6.553  -2.581  -4.262  0.00  0.00    +0.000 C 
ENDROOT
BRANCH   1   3
ATOM      3  C   ALA A   1       8.616  -3.018  -3.112  0.00  0.00    +0.000 C 
ATOM      4  O   ALA A   1       9.340  -2.435  -2.303  0.00  0.00    +0.000 OA
ATOM      5  N   UNK A   2       9.089  -4.008  -3.976  0.00  0.00    +0.000 N 
ATOM      6  C   UNK A   2      10.241  -4.743  -3.532  0.00  0.00    +0.000 C 
ATOM      7  C   UNK A   2      10.318  -5.907  -4.520  0.00  0.00    +0.000 C 
ATOM      8  C   UNK A   2       9.334  -5.642  -5.630  0.00  0.00    +0.000 C 
ATOM      9  C   UNK A   2       9.009  -4.164  -5.445  0.00  0.00    +0.000 C 
ATOM     10  S   UNK A   2       9.803  -7.396  -3.643  0.00  0.00    +0.000 S 
ATOM     11  C   UNK A   2      11.239  -8.358  -4.066  0.00  0.00    +0.000 C 
ATOM     12  C   UNK A   2      12.426  -7.470  -4.394  0.00  0.00    +0.000 C 
ATOM     13  S   UNK A   2      11.911  -6.045  -5.331  0.00  0.00    +0.000 S 
BRANCH   9  14
ATOM     14  C   UNK A   2       7.801  -4.099  -6.325  0.00  0.00    +0.000 C 
ATOM     15  O   UNK A   2       6.844  -4.886  -6.262  0.00  0.00    +0.000 OA
BRANCH  14  16
ATOM     16  O   UNK A   2       7.787  -2.966  -7.070  0.00  0.00    +0.000 OA
ATOM     17  H   UNK A   2       8.323  -2.225  -6.711  0.00  0.00    +0.000 HD
ENDBRANCH  14  16
ENDBRANCH   9  14
ENDBRANCH   1   3
BRANCH   1  18
ATOM     18  N   ALA A   1       6.436  -2.088  -2.105  0.00  0.00    +0.000 NA
ATOM     19  H   ALA A   1       6.723  -2.335  -1.156  0.00  0.00    +0.000 HD
BRANCH  18  20
ATOM     20  C   UNK A   0       4.893  -2.039  -2.197  0.00  0.00    +0.000 C 
BRANCH  20  21
ATOM     21  C   UNK A   0       4.163  -1.484  -3.575  0.00  0.00    +0.000 C 
ATOM     22  O   UNK A   0       3.763  -0.323  -3.722  0.00  0.00    +0.000 OA
BRANCH  21  23
ATOM     23  O   UNK A   0       3.997  -2.414  -4.593  0.00  0.00    +0.000 OA
BRANCH  23  25
ATOM     24  C   UNK A   0       4.667  -2.941  -6.987  0.00  0.00    +0.000 C 
ATOM     25  C   UNK A   0       4.048  -1.950  -5.984  0.00  0.00    +0.000 C 
ENDBRANCH  23  25
ENDBRANCH  21  23
ENDBRANCH  20  21
BRANCH  20  26
ATOM     26  C   UNK A   0       4.428  -1.114  -1.053  0.00  0.00    +0.000 C 
BRANCH  26  27
ATOM     27  C   UNK A   0       5.499  -0.133  -0.554  0.00  0.00    +0.000 C 
BRANCH  27  28
ATOM     28  C   UNK A   0       4.907   0.835   0.420  0.00  0.00    +0.000 A 
ATOM     29  C   UNK A   0       4.108   1.883  -0.045  0.00  0.00    +0.000 A 
ATOM     30  C   UNK A   0       3.615   2.823   0.850  0.00  0.00    +0.000 A 
ATOM     31  C   UNK A   0       3.849   2.669   2.216  0.00  0.00    +0.000 A 
ATOM     32  C   UNK A   0       4.615   1.603   2.687  0.00  0.00    +0.000 A 
ATOM     33  C   UNK A   0       5.152   0.689   1.789  0.00  0.00    +0.000 A 
ENDBRANCH  27  28
ENDBRANCH  26  27
ENDBRANCH  20  26
ENDBRANCH  18  20
ENDBRANCH   1  18
TORSDOF 11
