REMARK  Name = Squalene
REMARK  23 active torsions:
REMARK  status: ('A' for Active; 'I' for Inactive)
REMARK    1  A    between atoms: C_1  and  C_2
REMARK    2  A    between atoms: C_2  and  C_3
REMARK    3  A    between atoms: C_4  and  C_5
REMARK    4  A    between atoms: C_5  and  C_6
REMARK    5  A    between atoms: C_6  and  C_7
REMARK    6  A    between atoms: C_7  and  C_8
REMARK    7  A    between atoms: C_9  and  C_10
REMARK    8  A    between atoms: C_10  and  C_11
REMARK    9  A    between atoms: C_11  and  C_12
REMARK   10  A    between atoms: C_12  and  C_13
REMARK   11  A    between atoms: C_14  and  C_15
REMARK   12  A    between atoms: C_15  and  C_16
REMARK   13  A    between atoms: C_16  and  C_17
REMARK   14  A    between atoms: C_18  and  C_19
REMARK   15  A    between atoms: C_18  and  C_20
REMARK   16  A    between atoms: C_20  and  C_21
REMARK   17  A    between atoms: C_21  and  C_22
REMARK   18  A    between atoms: C_23  and  C_24
REMARK   19  A    between atoms: C_23  and  C_25
REMARK   20  A    between atoms: C_25  and  C_26
REMARK   21  A    between atoms: C_26  and  C_27
REMARK   22  A    between atoms: C_28  and  C_29
REMARK   23  A    between atoms: C_28  and  C_30
REMARK                            x       y       z     vdW  Elec       q    Type
REMARK                         _______ _______ _______ _____ _____    ______ ____
ROOT
ATOM      1  C   UNL     1      13.140   0.072   6.302  0.00  0.00    +0.000 C 
ENDROOT
BRANCH   1   4
ATOM      2  C   UNL     1      10.968   0.065   5.100  0.00  0.00    +0.000 C 
ATOM      3  C   UNL     1      11.738   0.058   3.800  0.00  0.00    +0.000 C 
ATOM      4  C   UNL     1      11.643   0.071   6.263  0.00  0.00    +0.000 C 
BRANCH   2   5
ATOM      5  C   UNL     1       9.457   0.065   5.128  0.00  0.00    +0.000 C 
BRANCH   5   6
ATOM      6  C   UNL     1       8.857   0.058   3.734  0.00  0.00    +0.000 C 
BRANCH   6   9
ATOM      7  C   UNL     1       6.720   0.051   2.506  0.00  0.00    +0.000 C 
ATOM      8  C   UNL     1       7.503   0.044   1.208  0.00  0.00    +0.000 C 
ATOM      9  C   UNL     1       7.368   0.058   3.687  0.00  0.00    +0.000 C 
BRANCH   7  10
ATOM     10  C   UNL     1       5.211   0.051   2.510  0.00  0.00    +0.000 C 
BRANCH  10  11
ATOM     11  C   UNL     1       4.617   0.044   1.111  0.00  0.00    +0.000 C 
BRANCH  11  15
ATOM     12  C   UNL     1       0.965   0.037  -0.107  0.00  0.00    +0.000 C 
ATOM     13  C   UNL     1       2.460   0.037  -0.100  0.00  0.00    +0.000 C 
ATOM     14  C   UNL     1       3.184   0.030  -1.421  0.00  0.00    +0.000 C 
ATOM     15  C   UNL     1       3.127   0.044   1.070  0.00  0.00    +0.000 C 
ENDBRANCH  11  15
ENDBRANCH  10  11
ENDBRANCH   7  10
ENDBRANCH   6   9
ENDBRANCH   5   6
ENDBRANCH   2   5
ENDBRANCH   1   4
BRANCH   1  16
ATOM     16  C   UNL     1      13.644   0.079   7.726  0.00  0.00    +0.000 C 
BRANCH  16  17
ATOM     17  C   UNL     1      15.138   0.080   7.776  0.00  0.00    +0.000 C 
ATOM     18  C   UNL     1      15.810   0.086   8.941  0.00  0.00    +0.000 C 
ATOM     19  C   UNL     1      15.090   0.093  10.270  0.00  0.00    +0.000 C 
BRANCH  18  20
ATOM     20  C   UNL     1      17.323   0.086   8.915  0.00  0.00    +0.000 C 
BRANCH  20  21
ATOM     21  C   UNL     1      17.912   0.093  10.314  0.00  0.00    +0.000 C 
BRANCH  21  22
ATOM     22  C   UNL     1      19.399   0.093  10.365  0.00  0.00    +0.000 C 
ATOM     23  C   UNL     1      20.053   0.100  11.542  0.00  0.00    +0.000 C 
ATOM     24  C   UNL     1      19.323   0.107  12.869  0.00  0.00    +0.000 C 
BRANCH  23  25
ATOM     25  C   UNL     1      21.565   0.100  11.534  0.00  0.00    +0.000 C 
BRANCH  25  26
ATOM     26  C   UNL     1      22.149   0.107  12.939  0.00  0.00    +0.000 C 
BRANCH  26  27
ATOM     27  C   UNL     1      23.640   0.108  12.987  0.00  0.00    +0.000 C 
ATOM     28  C   UNL     1      24.312   0.114  14.153  0.00  0.00    +0.000 C 
ATOM     29  C   UNL     1      23.626   0.121  15.496  0.00  0.00    +0.000 C 
ATOM     30  C   UNL     1      25.811   0.114  14.172  0.00  0.00    +0.000 C 
ENDBRANCH  26  27
ENDBRANCH  25  26
ENDBRANCH  23  25
ENDBRANCH  21  22
ENDBRANCH  20  21
ENDBRANCH  18  20
ENDBRANCH  16  17
ENDBRANCH   1  16
TORSDOF 15
