REMARK  Name = Stanozolol
REMARK  4 active torsions:
REMARK  status: ('A' for Active; 'I' for Inactive)
REMARK    1  A    between atoms: C_5  and  C_6
REMARK    2  A    between atoms: C_5  and  O_7
REMARK    3  A    between atoms: C_8  and  C_9
REMARK    4  A    between atoms: C_27  and  C_28
REMARK                            x       y       z     vdW  Elec       q    Type
REMARK                         _______ _______ _______ _____ _____    ______ ____
ROOT
ATOM      1  C   UNL     1       1.840  -0.077  -0.254  0.00  0.00    +0.000 C 
ATOM      2  C   UNL     1       2.257  -0.077  -1.611  0.00  0.00    +0.000 C 
ATOM      3  C   UNL     1       3.303  -0.387  -0.612  0.00  0.00    +0.000 C 
ATOM      4  C   UNL     1       2.522  -0.876   1.273  0.00  0.00    +0.000 C 
ATOM      5  C   UNL     1       0.916  -1.042   1.765  0.00  0.00    +0.000 C 
ATOM      6  C   UNL     1       2.750  -1.676   0.160  0.00  0.00    +0.000 C 
ATOM      7  C   UNL     1       2.093  -2.908  -0.272  0.00  0.00    +0.000 C 
ATOM      8  C   UNL     1       4.546  -1.614   0.674  0.00  0.00    +0.000 C 
ATOM      9  C   UNL     1       4.907  -0.114   1.457  0.00  0.00    +0.000 C 
ATOM     10  C   UNL     1       4.313   1.307   0.915  0.00  0.00    +0.000 C 
ATOM     11  C   UNL     1       2.582   1.340   0.660  0.00  0.00    +0.000 C 
ATOM     12  C   UNL     1       2.097   2.576  -0.051  0.00  0.00    +0.000 C 
ATOM     13  C   UNL     1       2.676   3.814   0.566  0.00  0.00    +0.000 C 
ATOM     14  C   UNL     1       4.202   3.787   0.653  0.00  0.00    +0.000 C 
ATOM     15  C   UNL     1       4.869   3.745  -0.807  0.00  0.00    +0.000 C 
ATOM     16  C   UNL     1       6.374   3.734  -0.692  0.00  0.00    +0.000 A 
ATOM     17  N   UNL     1       7.245   2.750  -1.094  0.00  0.00    +0.000 NA
ATOM     18  N   UNL     1       8.417   3.146  -0.449  0.00  0.00    +0.000 N 
ATOM     19  C   UNL     1       8.198   4.405   0.108  0.00  0.00    +0.000 A 
ATOM     20  C   UNL     1       6.908   4.064   0.564  0.00  0.00    +0.000 A 
ATOM     21  C   UNL     1       6.381   2.911   1.586  0.00  0.00    +0.000 C 
ATOM     22  C   UNL     1       4.789   2.653   1.558  0.00  0.00    +0.000 C 
ATOM     23  C   UNL     1       4.237   2.592   2.980  0.00  0.00    +0.000 C 
ATOM     24  H   UNL     1       9.077   2.504  -0.015  0.00  0.00    +0.000 HD
ENDROOT
BRANCH   4  25
ATOM     25  O   UNL     1       3.040  -1.851   2.269  0.00  0.00    +0.000 OA
ATOM     26  H   UNL     1       2.441  -2.012   3.020  0.00  0.00    +0.000 HD
ENDBRANCH   4  25
TORSDOF 1
