REMARK  Name = Stavudine
REMARK  4 active torsions:
REMARK  status: ('A' for Active; 'I' for Inactive)
REMARK    1  A    between atoms: C_1  and  C_2
REMARK    2  A    between atoms: N_4  and  C_5
REMARK    3  A    between atoms: C_7  and  C_8
REMARK    4  A    between atoms: C_8  and  O_9
REMARK                            x       y       z     vdW  Elec       q    Type
REMARK                         _______ _______ _______ _____ _____    ______ ____
ROOT
ATOM      1  C   UNL     1       0.951   0.092  -0.014  0.00  0.00    +0.000 C 
ATOM      2  C   UNL     1       2.440   0.170  -0.079  0.00  0.00    +0.000 A 
ATOM      3  C   UNL     1       3.148   1.310  -0.116  0.00  0.00    +0.000 A 
ATOM      4  N   UNL     1       4.511   1.324  -0.372  0.00  0.00    +0.000 N 
ATOM      5  C   UNL     1       5.243   0.140  -0.381  0.00  0.00    +0.000 A 
ATOM      6  O   UNL     1       6.447   0.062  -0.610  0.00  0.00    +0.000 OA
ATOM      7  N   UNL     1       4.536  -1.004  -0.118  0.00  0.00    +0.000 N 
ATOM      8  C   UNL     1       3.181  -1.110  -0.139  0.00  0.00    +0.000 A 
ATOM      9  O   UNL     1       2.610  -2.200  -0.197  0.00  0.00    +0.000 OA
ATOM     10  H   UNL     1       5.061  -1.864  -0.134  0.00  0.00    +0.000 HD
ENDROOT
BRANCH   4  11
ATOM     11  C   UNL     1       5.282   2.560  -0.428  0.00  0.00    +0.000 C 
ATOM     12  O   UNL     1       5.156   3.222   0.843  0.00  0.00    +0.000 OA
ATOM     13  C   UNL     1       4.922   4.627   0.619  0.00  0.00    +0.000 C 
ATOM     14  C   UNL     1       4.769   4.775  -0.851  0.00  0.00    +0.000 C 
ATOM     15  C   UNL     1       4.888   3.583  -1.443  0.00  0.00    +0.000 C 
BRANCH  13  16
ATOM     16  C   UNL     1       3.681   5.089   1.399  0.00  0.00    +0.000 C 
BRANCH  16  17
ATOM     17  O   UNL     1       3.661   4.563   2.724  0.00  0.00    +0.000 OA
ATOM     18  H   UNL     1       4.588   4.445   2.997  0.00  0.00    +0.000 HD
ENDBRANCH  16  17
ENDBRANCH  13  16
ENDBRANCH   4  11
TORSDOF 3
