REMARK  Name = Stearic acid
REMARK  18 active torsions:
REMARK  status: ('A' for Active; 'I' for Inactive)
REMARK    1  A    between atoms: C_1  and  C_2
REMARK    2  A    between atoms: C_2  and  C_3
REMARK    3  A    between atoms: C_3  and  C_4
REMARK    4  A    between atoms: C_4  and  C_5
REMARK    5  A    between atoms: C_5  and  C_6
REMARK    6  A    between atoms: C_6  and  C_7
REMARK    7  A    between atoms: C_7  and  C_8
REMARK    8  A    between atoms: C_8  and  C_9
REMARK    9  A    between atoms: C_9  and  C_10
REMARK   10  A    between atoms: C_10  and  C_11
REMARK   11  A    between atoms: C_11  and  C_12
REMARK   12  A    between atoms: C_12  and  C_13
REMARK   13  A    between atoms: C_13  and  C_14
REMARK   14  A    between atoms: C_14  and  C_15
REMARK   15  A    between atoms: C_15  and  C_16
REMARK   16  A    between atoms: C_16  and  C_17
REMARK   17  A    between atoms: C_17  and  C_18
REMARK   18  A    between atoms: C_18  and  O_19
REMARK                            x       y       z     vdW  Elec       q    Type
REMARK                         _______ _______ _______ _____ _____    ______ ____
ROOT
ATOM      1  C   UNL     1      11.195  -2.337   6.721  0.00  0.00    +0.000 C 
ENDROOT
BRANCH   1   2
ATOM      2  C   UNL     1      12.712  -2.339   6.727  0.00  0.00    +0.000 C 
BRANCH   2   3
ATOM      3  C   UNL     1      13.220  -2.796   8.082  0.00  0.00    +0.000 C 
BRANCH   3   4
ATOM      4  C   UNL     1      14.736  -2.799   8.091  0.00  0.00    +0.000 C 
BRANCH   4   5
ATOM      5  C   UNL     1      15.250  -3.257   9.447  0.00  0.00    +0.000 C 
BRANCH   5   6
ATOM      6  C   UNL     1      16.768  -3.252   9.433  0.00  0.00    +0.000 C 
BRANCH   6   7
ATOM      7  C   UNL     1      17.344  -3.701  10.764  0.00  0.00    +0.000 C 
BRANCH   7   8
ATOM      8  C   UNL     1      18.854  -3.725  10.834  0.00  0.00    +0.000 C 
ATOM      9  O   UNL     1      19.446  -4.068  11.851  0.00  0.00    +0.000 OA
BRANCH   8  10
ATOM     10  O   UNL     1      19.531  -3.353   9.731  0.00  0.00    +0.000 OA
ATOM     11  H   UNL     1      19.015  -3.089   8.949  0.00  0.00    +0.000 HD
ENDBRANCH   8  10
ENDBRANCH   7   8
ENDBRANCH   6   7
ENDBRANCH   5   6
ENDBRANCH   4   5
ENDBRANCH   3   4
ENDBRANCH   2   3
ENDBRANCH   1   2
BRANCH   1  12
ATOM     12  C   UNL     1      10.685  -1.880   5.368  0.00  0.00    +0.000 C 
BRANCH  12  13
ATOM     13  C   UNL     1       9.168  -1.878   5.363  0.00  0.00    +0.000 C 
BRANCH  13  14
ATOM     14  C   UNL     1       8.658  -1.422   4.010  0.00  0.00    +0.000 C 
BRANCH  14  15
ATOM     15  C   UNL     1       7.141  -1.420   4.005  0.00  0.00    +0.000 C 
BRANCH  15  16
ATOM     16  C   UNL     1       6.630  -0.963   2.651  0.00  0.00    +0.000 C 
BRANCH  16  17
ATOM     17  C   UNL     1       5.112  -0.961   2.644  0.00  0.00    +0.000 C 
BRANCH  17  18
ATOM     18  C   UNL     1       4.599  -0.503   1.289  0.00  0.00    +0.000 C 
BRANCH  18  19
ATOM     19  C   UNL     1       3.079  -0.500   1.280  0.00  0.00    +0.000 C 
BRANCH  19  21
ATOM     20  C   UNL     1       1.041  -0.041  -0.081  0.00  0.00    +0.000 C 
ATOM     21  C   UNL     1       2.557  -0.043  -0.074  0.00  0.00    +0.000 C 
ENDBRANCH  19  21
ENDBRANCH  18  19
ENDBRANCH  17  18
ENDBRANCH  16  17
ENDBRANCH  15  16
ENDBRANCH  14  15
ENDBRANCH  13  14
ENDBRANCH  12  13
ENDBRANCH   1  12
TORSDOF 17
