REMARK  Name = Steviolbioside
REMARK  17 active torsions:
REMARK  status: ('A' for Active; 'I' for Inactive)
REMARK    1  A    between atoms: C_1  and  C_2
REMARK    2  A    between atoms: C_6  and  C_7
REMARK    3  A    between atoms: C_6  and  C_43
REMARK    4  A    between atoms: C_15  and  O_20
REMARK    5  A    between atoms: O_20  and  C_21
REMARK    6  A    between atoms: C_23  and  C_24
REMARK    7  A    between atoms: C_24  and  O_25
REMARK    8  A    between atoms: C_26  and  O_27
REMARK    9  A    between atoms: C_28  and  O_29
REMARK   10  A    between atoms: C_30  and  O_31
REMARK   11  A    between atoms: O_31  and  C_32
REMARK   12  A    between atoms: C_34  and  C_35
REMARK   13  A    between atoms: C_35  and  O_36
REMARK   14  A    between atoms: C_37  and  O_38
REMARK   15  A    between atoms: C_39  and  O_40
REMARK   16  A    between atoms: C_41  and  O_42
REMARK   17  A    between atoms: C_43  and  O_44
REMARK                            x       y       z     vdW  Elec       q    Type
REMARK                         _______ _______ _______ _____ _____    ______ ____
ROOT
ATOM      1  C   UNL     1       0.889  -3.459  -5.433  0.00  0.00    +0.000 C 
ATOM      2  O   UNL     1      -0.286  -3.629  -4.635  0.00  0.00    +0.000 OA
ATOM      3  C   UNL     1      -0.489  -4.788  -3.816  0.00  0.00    +0.000 C 
ATOM      4  C   UNL     1      -0.238  -6.114  -4.506  0.00  0.00    +0.000 C 
ATOM      5  C   UNL     1       0.865  -5.944  -5.554  0.00  0.00    +0.000 C 
ATOM      6  C   UNL     1       0.839  -4.614  -6.413  0.00  0.00    +0.000 C 
ENDROOT
BRANCH   4   7
ATOM      7  O   UNL     1      -1.439  -6.725  -4.853  0.00  0.00    +0.000 OA
ATOM      8  H   UNL     1      -1.944  -5.966  -5.205  0.00  0.00    +0.000 HD
ENDBRANCH   4   7
BRANCH   5   9
ATOM      9  O   UNL     1       2.116  -6.037  -4.834  0.00  0.00    +0.000 OA
ATOM     10  H   UNL     1       2.253  -5.193  -4.358  0.00  0.00    +0.000 HD
ENDBRANCH   5   9
BRANCH   1  11
ATOM     11  O   UNL     1       2.084  -3.412  -4.670  0.00  0.00    +0.000 OA
BRANCH  11  26
ATOM     12  C   UNL     1       1.000   0.246   0.122  0.00  0.00    +0.000 C 
ATOM     13  C   UNL     1       2.514   0.133  -0.103  0.00  0.00    +0.000 C 
ATOM     14  C   UNL     1       2.995   1.599  -0.157  0.00  0.00    +0.000 C 
ATOM     15  C   UNL     1       4.482   1.493  -0.331  0.00  0.00    +0.000 C 
ATOM     16  C   UNL     1       5.260   1.352   0.920  0.00  0.00    +0.000 C 
ATOM     17  C   UNL     1       4.903  -0.366   1.508  0.00  0.00    +0.000 C 
ATOM     18  C   UNL     1       5.099  -1.977   1.104  0.00  0.00    +0.000 C 
ATOM     19  C   UNL     1       3.170  -0.619   1.221  0.00  0.00    +0.000 C 
ATOM     20  C   UNL     1       2.475  -2.092   1.134  0.00  0.00    +0.000 C 
ATOM     21  C   UNL     1       2.782  -2.875  -0.209  0.00  0.00    +0.000 C 
ATOM     22  C   UNL     1       2.472  -2.094  -1.449  0.00  0.00    +0.000 C 
ATOM     23  C   UNL     1       0.976  -2.140  -1.645  0.00  0.00    +0.000 C 
ATOM     24  C   UNL     1       0.846  -1.983  -3.089  0.00  0.00    +0.000 C 
ATOM     25  C   UNL     1      -0.147  -1.208  -3.561  0.00  0.00    +0.000 C 
ATOM     26  C   UNL     1       2.160  -2.323  -3.761  0.00  0.00    +0.000 C 
ATOM     27  C   UNL     1       3.120  -2.772  -2.664  0.00  0.00    +0.000 C 
ATOM     28  C   UNL     1       2.658  -0.956  -4.204  0.00  0.00    +0.000 C 
ATOM     29  C   UNL     1       2.706   0.022  -2.900  0.00  0.00    +0.000 C 
ATOM     30  C   UNL     1       2.984  -0.657  -1.467  0.00  0.00    +0.000 C 
BRANCH  17  31
ATOM     31  C   UNL     1       6.416  -0.765   1.833  0.00  0.00    +0.000 C 
ATOM     32  O   UNL     1       7.284  -0.812   1.021  0.00  0.00    +0.000 OA
BRANCH  31  33
ATOM     33  O   UNL     1       6.570  -1.338   3.084  0.00  0.00    +0.000 OA
ATOM     34  H   UNL     1       5.735  -1.611   3.505  0.00  0.00    +0.000 HD
ENDBRANCH  31  33
ENDBRANCH  17  31
ENDBRANCH  11  26
ENDBRANCH   1  11
BRANCH   3  35
ATOM     35  C   UNL     1       0.407  -4.973  -2.605  0.00  0.00    +0.000 C 
BRANCH  35  36
ATOM     36  O   UNL     1      -0.351  -5.066  -1.419  0.00  0.00    +0.000 OA
ATOM     37  H   UNL     1      -0.861  -5.891  -1.498  0.00  0.00    +0.000 HD
ENDBRANCH  35  36
ENDBRANCH   3  35
BRANCH   6  38
ATOM     38  O   UNL     1      -0.219  -4.376  -7.421  0.00  0.00    +0.000 OA
BRANCH  38  39
ATOM     39  C   UNL     1      -1.558  -4.139  -6.978  0.00  0.00    +0.000 C 
ATOM     40  O   UNL     1      -2.088  -5.330  -6.412  0.00  0.00    +0.000 OA
ATOM     41  C   UNL     1      -2.143  -6.561  -7.247  0.00  0.00    +0.000 C 
ATOM     42  C   UNL     1      -3.218  -6.290  -8.245  0.00  0.00    +0.000 C 
ATOM     43  C   UNL     1      -2.802  -4.985  -8.961  0.00  0.00    +0.000 C 
ATOM     44  C   UNL     1      -2.625  -3.775  -8.024  0.00  0.00    +0.000 C 
BRANCH  42  45
ATOM     45  O   UNL     1      -4.466  -6.181  -7.538  0.00  0.00    +0.000 OA
ATOM     46  H   UNL     1      -4.286  -5.920  -6.616  0.00  0.00    +0.000 HD
ENDBRANCH  42  45
BRANCH  43  47
ATOM     47  O   UNL     1      -1.541  -5.175  -9.640  0.00  0.00    +0.000 OA
ATOM     48  H   UNL     1      -0.813  -4.983  -8.999  0.00  0.00    +0.000 HD
ENDBRANCH  43  47
BRANCH  44  49
ATOM     49  O   UNL     1      -3.843  -3.452  -7.326  0.00  0.00    +0.000 OA
ATOM     50  H   UNL     1      -3.899  -4.044  -6.551  0.00  0.00    +0.000 HD
ENDBRANCH  44  49
BRANCH  41  51
ATOM     51  C   UNL     1      -0.811  -7.147  -7.793  0.00  0.00    +0.000 C 
BRANCH  51  52
ATOM     52  O   UNL     1      -0.880  -7.605  -9.131  0.00  0.00    +0.000 OA
ATOM     53  H   UNL     1      -1.104  -6.819  -9.676  0.00  0.00    +0.000 HD
ENDBRANCH  51  52
ENDBRANCH  41  51
ENDBRANCH  38  39
ENDBRANCH   6  38
TORSDOF 15
