REMARK  Name = Stiripentol
REMARK  7 active torsions:
REMARK  status: ('A' for Active; 'I' for Inactive)
REMARK    1  A    between atoms: C_1  and  C_2
REMARK    2  A    between atoms: C_2  and  C_3
REMARK    3  A    between atoms: C_2  and  C_4
REMARK    4  A    between atoms: C_2  and  C_5
REMARK    5  A    between atoms: C_5  and  O_6
REMARK    6  A    between atoms: C_5  and  C_7
REMARK    7  A    between atoms: C_8  and  C_9
REMARK                            x       y       z     vdW  Elec       q    Type
REMARK                         _______ _______ _______ _____ _____    ______ ____
ROOT
ATOM      1  C   UNL     1       4.533  -0.154   1.608  0.00  0.00    +0.000 C 
ATOM      2  C   UNL     1       5.250  -0.248   2.738  0.00  0.00    +0.000 C 
ENDROOT
BRANCH   2   3
ATOM      3  C   UNL     1       6.716  -0.237   2.707  0.00  0.00    +0.000 A 
ATOM      4  C   UNL     1       7.433   0.697   1.939  0.00  0.00    +0.000 A 
ATOM      5  C   UNL     1       8.809   0.628   1.951  0.00  0.00    +0.000 A 
ATOM      6  C   UNL     1       9.479  -0.315   2.693  0.00  0.00    +0.000 A 
ATOM      7  O   UNL     1      10.829  -0.217   2.558  0.00  0.00    +0.000 OA
ATOM      8  C   UNL     1      10.927   0.848   1.589  0.00  0.00    +0.000 C 
ATOM      9  O   UNL     1       9.654   1.443   1.262  0.00  0.00    +0.000 OA
ATOM     10  C   UNL     1       8.810  -1.235   3.470  0.00  0.00    +0.000 A 
ATOM     11  C   UNL     1       7.413  -1.189   3.479  0.00  0.00    +0.000 A 
ENDBRANCH   2   3
BRANCH   1  12
ATOM     12  C   UNL     1       3.032  -0.146   1.533  0.00  0.00    +0.000 C 
BRANCH  12  14
ATOM     13  C   UNL     1       0.952  -0.003   0.090  0.00  0.00    +0.000 C 
ATOM     14  C   UNL     1       2.492  -0.005   0.077  0.00  0.00    +0.000 C 
ATOM     15  C   UNL     1       2.963  -1.177  -0.812  0.00  0.00    +0.000 C 
ATOM     16  C   UNL     1       2.969   1.329  -0.536  0.00  0.00    +0.000 C 
ENDBRANCH  12  14
BRANCH  12  17
ATOM     17  O   UNL     1       2.539  -1.336   2.144  0.00  0.00    +0.000 OA
ATOM     18  H   UNL     1       2.908  -2.090   1.655  0.00  0.00    +0.000 HD
ENDBRANCH  12  17
ENDBRANCH   1  12
TORSDOF 4
