REMARK  Name = Streptozocin
REMARK  8 active torsions:
REMARK  status: ('A' for Active; 'I' for Inactive)
REMARK    1  A    between atoms: C_1  and  N_2
REMARK    2  A    between atoms: N_2  and  N_3
REMARK    3  A    between atoms: N_7  and  C_8
REMARK    4  A    between atoms: C_9  and  O_10
REMARK    5  A    between atoms: C_12  and  C_13
REMARK    6  A    between atoms: C_13  and  O_14
REMARK    7  A    between atoms: C_15  and  O_16
REMARK    8  A    between atoms: C_17  and  O_18
REMARK                            x       y       z     vdW  Elec       q    Type
REMARK                         _______ _______ _______ _____ _____    ______ ____
ROOT
ATOM      1  C   UNL     1       5.417   1.994  -1.746  0.00  0.00    +0.000 C 
ATOM      2  C   UNL     1       5.174   3.363  -1.218  0.00  0.00    +0.000 C 
ATOM      3  O   UNL     1       3.871   3.840  -1.204  0.00  0.00    +0.000 OA
ATOM      4  C   UNL     1       3.536   4.134  -2.530  0.00  0.00    +0.000 C 
ATOM      5  C   UNL     1       3.529   2.797  -3.294  0.00  0.00    +0.000 C 
ATOM      6  C   UNL     1       4.913   2.039  -3.215  0.00  0.00    +0.000 C 
ENDROOT
BRANCH   1  11
ATOM      7  C   UNL     1       9.129   3.921   0.508  0.00  0.00    +0.000 C 
ATOM      8  N   UNL     1       7.843   3.414   0.072  0.00  0.00    +0.000 N 
ATOM      9  C   UNL     1       7.920   2.336  -0.868  0.00  0.00    +0.000 C 
ATOM     10  O   UNL     1       8.988   1.795  -1.088  0.00  0.00    +0.000 OA
ATOM     11  N   UNL     1       6.866   1.732  -1.552  0.00  0.00    +0.000 N 
ATOM     12  H   UNL     1       7.195   0.901  -2.044  0.00  0.00    +0.000 HD
BRANCH   8  13
ATOM     13  N   UNL     1       6.997   4.534   0.102  0.00  0.00    +0.000 NA
ATOM     14  O   UNL     1       6.456   4.739   1.194  0.00  0.00    +0.000 OA
ENDBRANCH   8  13
ENDBRANCH   1  11
BRANCH   2  15
ATOM     15  O   UNL     1       6.017   4.285  -1.950  0.00  0.00    +0.000 OA
ATOM     16  H   UNL     1       6.150   4.064  -2.882  0.00  0.00    +0.000 HD
ENDBRANCH   2  15
BRANCH   5  17
ATOM     17  O   UNL     1       3.146   3.046  -4.639  0.00  0.00    +0.000 OA
ATOM     18  H   UNL     1       3.911   3.433  -5.101  0.00  0.00    +0.000 HD
ENDBRANCH   5  17
BRANCH   6  19
ATOM     19  O   UNL     1       4.841   0.730  -3.783  0.00  0.00    +0.000 OA
ATOM     20  H   UNL     1       4.118   0.239  -3.357  0.00  0.00    +0.000 HD
ENDBRANCH   6  19
BRANCH   4  21
ATOM     21  C   UNL     1       2.239   4.902  -2.509  0.00  0.00    +0.000 C 
BRANCH  21  22
ATOM     22  O   UNL     1       2.136   5.632  -3.723  0.00  0.00    +0.000 OA
ATOM     23  H   UNL     1       2.386   5.006  -4.429  0.00  0.00    +0.000 HD
ENDBRANCH  21  22
ENDBRANCH   4  21
TORSDOF 7
