REMARK  Name = Streptomycin
REMARK  18 active torsions:
REMARK  status: ('A' for Active; 'I' for Inactive)
REMARK    1  A    between atoms: C_1  and  N_2
REMARK    2  A    between atoms: N_2  and  C_3
REMARK    3  A    between atoms: C_4  and  O_5
REMARK    4  A    between atoms: C_6  and  O_7
REMARK    5  A    between atoms: C_8  and  C_9
REMARK    6  A    between atoms: C_9  and  O_10
REMARK    7  A    between atoms: C_12  and  O_13
REMARK    8  A    between atoms: O_13  and  C_14
REMARK    9  A    between atoms: C_15  and  O_16
REMARK   10  A    between atoms: O_16  and  C_17
REMARK   11  A    between atoms: C_18  and  O_19
REMARK   12  A    between atoms: C_20  and  O_21
REMARK   13  A    between atoms: C_22  and  N_23
REMARK   14  A    between atoms: C_27  and  O_28
REMARK   15  A    between atoms: C_29  and  N_30
REMARK   16  A    between atoms: C_35  and  C_36
REMARK   17  A    between atoms: C_37  and  O_38
REMARK   18  A    between atoms: C_37  and  C_39
REMARK                            x       y       z     vdW  Elec       q    Type
REMARK                         _______ _______ _______ _____ _____    ______ ____
ROOT
ATOM      1  O   UNL     1      -2.454  -1.549  -4.983  0.00  0.00    +0.000 OA
ENDROOT
BRANCH   1   3
ATOM      2  C   UNL     1      -3.073  -2.366  -2.711  0.00  0.00    +0.000 C 
ATOM      3  C   UNL     1      -2.723  -2.660  -4.169  0.00  0.00    +0.000 C 
ATOM      4  O   UNL     1      -3.768  -3.529  -4.682  0.00  0.00    +0.000 OA
ATOM      5  C   UNL     1      -4.735  -3.772  -3.631  0.00  0.00    +0.000 C 
ATOM      6  C   UNL     1      -4.514  -5.127  -2.923  0.00  0.00    +0.000 C 
ATOM      7  C   UNL     1      -4.585  -2.583  -2.695  0.00  0.00    +0.000 C 
BRANCH   7   8
ATOM      8  C   UNL     1      -5.281  -1.331  -3.229  0.00  0.00    +0.000 C 
ATOM      9  O   UNL     1      -5.226  -0.257  -2.667  0.00  0.00    +0.000 OA
ENDBRANCH   7   8
BRANCH   7  10
ATOM     10  O   UNL     1      -5.120  -2.814  -1.396  0.00  0.00    +0.000 OA
ATOM     11  H   UNL     1      -4.560  -3.477  -0.961  0.00  0.00    +0.000 HD
ENDBRANCH   7  10
BRANCH   2  12
ATOM     12  O   UNL     1      -2.476  -3.368  -1.876  0.00  0.00    +0.000 OA
BRANCH  12  18
ATOM     13  C   UNL     1      -0.517  -4.103  -0.571  0.00  0.00    +0.000 C 
ATOM     14  C   UNL     1      -0.708  -5.604  -0.943  0.00  0.00    +0.000 C 
ATOM     15  C   UNL     1      -0.288  -6.002  -2.395  0.00  0.00    +0.000 C 
ATOM     16  C   UNL     1      -0.775  -4.981  -3.376  0.00  0.00    +0.000 C 
ATOM     17  O   UNL     1      -0.406  -3.717  -2.848  0.00  0.00    +0.000 OA
ATOM     18  C   UNL     1      -1.072  -3.260  -1.707  0.00  0.00    +0.000 C 
BRANCH  13  20
ATOM     19  C   UNL     1      -2.493  -3.396   0.690  0.00  0.00    +0.000 C 
ATOM     20  N   UNL     1      -1.067  -3.705   0.749  0.00  0.00    +0.000 NA
ATOM     21  H   UNL     1      -0.916  -4.487   1.388  0.00  0.00    +0.000 HD
ENDBRANCH  13  20
BRANCH  15  22
ATOM     22  O   UNL     1      -0.841  -7.269  -2.764  0.00  0.00    +0.000 OA
ATOM     23  H   UNL     1      -1.812  -7.196  -2.708  0.00  0.00    +0.000 HD
ENDBRANCH  15  22
BRANCH  14  24
ATOM     24  O   UNL     1       0.034  -6.398  -0.014  0.00  0.00    +0.000 OA
ATOM     25  H   UNL     1       0.967  -6.362  -0.295  0.00  0.00    +0.000 HD
ENDBRANCH  14  24
BRANCH  16  26
ATOM     26  C   UNL     1      -0.311  -5.104  -4.854  0.00  0.00    +0.000 C 
BRANCH  26  27
ATOM     27  O   UNL     1       0.445  -6.262  -5.148  0.00  0.00    +0.000 OA
ATOM     28  H   UNL     1      -0.107  -7.032  -4.919  0.00  0.00    +0.000 HD
ENDBRANCH  26  27
ENDBRANCH  16  26
ENDBRANCH  12  18
ENDBRANCH   2  12
ENDBRANCH   1   3
BRANCH   1  29
ATOM     29  C   UNL     1      -1.480  -0.603  -4.513  0.00  0.00    +0.000 C 
ATOM     30  C   UNL     1      -0.014  -1.033  -4.711  0.00  0.00    +0.000 C 
ATOM     31  C   UNL     1       0.945  -0.030  -4.093  0.00  0.00    +0.000 C 
ATOM     32  C   UNL     1       0.779   1.210  -4.926  0.00  0.00    +0.000 C 
ATOM     33  C   UNL     1      -0.659   1.746  -4.823  0.00  0.00    +0.000 C 
ATOM     34  C   UNL     1      -1.658   0.679  -5.349  0.00  0.00    +0.000 C 
BRANCH  34  35
ATOM     35  N   UNL     1      -3.035   1.160  -5.287  0.00  0.00    +0.000 N 
ATOM     36  C   UNL     1      -4.140   0.593  -5.829  0.00  0.00    +0.000 C 
ATOM     37  N   UNL     1      -4.005  -0.536  -6.550  0.00  0.00    +0.000 N 
ATOM     38  N   UNL     1      -5.324   1.069  -5.686  0.00  0.00    +0.000 NA
ATOM     39  H   UNL     1      -3.135   2.111  -4.946  0.00  0.00    +0.000 HD
ATOM     40  H   UNL     1      -3.247  -1.140  -6.247  0.00  0.00    +0.000 HD
ATOM     41  H   UNL     1      -4.866  -1.071  -6.556  0.00  0.00    +0.000 HD
ATOM     42  H   UNL     1      -5.276   1.925  -5.130  0.00  0.00    +0.000 HD
ENDBRANCH  34  35
BRANCH  32  43
ATOM     43  N   UNL     1       1.779   2.182  -4.569  0.00  0.00    +0.000 N 
ATOM     44  C   UNL     1       2.793   2.564  -5.367  0.00  0.00    +0.000 C 
ATOM     45  N   UNL     1       2.962   1.892  -6.523  0.00  0.00    +0.000 N 
ATOM     46  N   UNL     1       3.537   3.575  -5.104  0.00  0.00    +0.000 NA
ATOM     47  H   UNL     1       1.702   2.603  -3.650  0.00  0.00    +0.000 HD
ATOM     48  H   UNL     1       2.765   0.905  -6.561  0.00  0.00    +0.000 HD
ATOM     49  H   UNL     1       3.830   2.133  -6.987  0.00  0.00    +0.000 HD
ATOM     50  H   UNL     1       3.212   4.011  -4.240  0.00  0.00    +0.000 HD
ENDBRANCH  32  43
BRANCH  33  51
ATOM     51  O   UNL     1      -0.795   2.930  -5.604  0.00  0.00    +0.000 OA
ATOM     52  H   UNL     1      -0.438   2.738  -6.492  0.00  0.00    +0.000 HD
ENDBRANCH  33  51
BRANCH  31  53
ATOM     53  O   UNL     1       2.291  -0.530  -4.116  0.00  0.00    +0.000 OA
ATOM     54  H   UNL     1       2.432  -1.021  -4.943  0.00  0.00    +0.000 HD
ENDBRANCH  31  53
BRANCH  30  55
ATOM     55  O   UNL     1       0.371  -2.208  -4.112  0.00  0.00    +0.000 OA
ATOM     56  H   UNL     1       0.269  -2.118  -3.149  0.00  0.00    +0.000 HD
ENDBRANCH  30  55
ENDBRANCH   1  29
TORSDOF 16
