REMARK  Name = Strontium chloride Sr-89
REMARK  0 active torsions:
REMARK  status: ('A' for Active; 'I' for Inactive)
REMARK                            x       y       z     vdW  Elec       q    Type
REMARK                         _______ _______ _______ _____ _____    ______ ____
ROOT
ATOM      1 CL   UNL     1       0.921  -0.061  -0.008  0.00  0.00    +0.000 Cl
ENDROOT
TORSDOF 0
REMARK  Name = Strontium chloride Sr-89
REMARK  0 active torsions:
REMARK  status: ('A' for Active; 'I' for Inactive)
REMARK                            x       y       z     vdW  Elec       q    Type
REMARK                         _______ _______ _______ _____ _____    ______ ____
ROOT
ATOM      1 CL   UNL     1       1.086   0.018  -0.047  0.00  0.00    +0.000 Cl
ENDROOT
TORSDOF 0
REMARK  Name = Strontium chloride Sr-89
REMARK  0 active torsions:
REMARK  status: ('A' for Active; 'I' for Inactive)
REMARK                            x       y       z     vdW  Elec       q    Type
REMARK                         _______ _______ _______ _____ _____    ______ ____
ROOT
ATOM      1 SR   UNL     1       0.949   0.041   0.076  0.00  0.00    +0.000 Sr
ENDROOT
TORSDOF 0
