REMARK  Name = Strontium chloride
REMARK  0 active torsions:
REMARK  status: ('A' for Active; 'I' for Inactive)
REMARK                            x       y       z     vdW  Elec       q    Type
REMARK                         _______ _______ _______ _____ _____    ______ ____
ROOT
ATOM      1 CL   UNL     1       1.056   0.037   0.074  0.00  0.00    +0.000 Cl
ENDROOT
TORSDOF 0
REMARK  Name = Strontium chloride
REMARK  0 active torsions:
REMARK  status: ('A' for Active; 'I' for Inactive)
REMARK                            x       y       z     vdW  Elec       q    Type
REMARK                         _______ _______ _______ _____ _____    ______ ____
ROOT
ATOM      1 CL   UNL     1       1.065  -0.040   0.065  0.00  0.00    +0.000 Cl
ENDROOT
TORSDOF 0
REMARK  Name = Strontium chloride
REMARK  0 active torsions:
REMARK  status: ('A' for Active; 'I' for Inactive)
REMARK                            x       y       z     vdW  Elec       q    Type
REMARK                         _______ _______ _______ _____ _____    ______ ____
ROOT
ATOM      1 SR   UNL     1       0.934   0.070   0.028  0.00  0.00    +0.000 Sr
ENDROOT
TORSDOF 0
