REMARK  Name = Succimer
REMARK  7 active torsions:
REMARK  status: ('A' for Active; 'I' for Inactive)
REMARK    1  A    between atoms: O_1  and  C_2
REMARK    2  A    between atoms: C_2  and  C_4
REMARK    3  A    between atoms: C_4  and  S_5
REMARK    4  A    between atoms: C_4  and  C_6
REMARK    5  A    between atoms: C_6  and  S_7
REMARK    6  A    between atoms: C_6  and  C_8
REMARK    7  A    between atoms: C_8  and  O_9
REMARK                            x       y       z     vdW  Elec       q    Type
REMARK                         _______ _______ _______ _____ _____    ______ ____
ROOT
ATOM      1  C   UNL     1       3.092  -0.017  -1.213  0.00  0.00    +0.000 C 
ENDROOT
BRANCH   1   2
ATOM      2  C   UNL     1       2.352   0.143   0.114  0.00  0.00    +0.000 C 
ATOM      3  O   UNL     1       2.891   0.322   1.198  0.00  0.00    +0.000 OA
BRANCH   2   4
ATOM      4  O   UNL     1       1.002   0.076   0.016  0.00  0.00    +0.000 OA
ATOM      5  H   UNL     1       0.642   0.033  -0.892  0.00  0.00    +0.000 HD
ENDBRANCH   2   4
ENDBRANCH   1   2
BRANCH   1   6
ATOM      6  S   UNL     1       2.517   1.352  -2.327  0.00  0.00    +0.000 S 
ATOM      7  H   UNL     1       3.047   2.384  -1.640  0.00  0.00    +0.000 HD
ENDBRANCH   1   6
BRANCH   1   8
ATOM      8  C   UNL     1       4.623  -0.036  -1.047  0.00  0.00    +0.000 C 
BRANCH   8   9
ATOM      9  S   UNL     1       5.188  -1.437   0.052  0.00  0.00    +0.000 S 
ATOM     10  H   UNL     1       4.728  -2.465  -0.673  0.00  0.00    +0.000 HD
ENDBRANCH   8   9
BRANCH   8  11
ATOM     11  C   UNL     1       5.453  -0.149  -2.335  0.00  0.00    +0.000 C 
ATOM     12  O   UNL     1       6.679  -0.121  -2.339  0.00  0.00    +0.000 OA
BRANCH  11  13
ATOM     13  O   UNL     1       4.789  -0.304  -3.500  0.00  0.00    +0.000 OA
ATOM     14  H   UNL     1       3.825  -0.154  -3.512  0.00  0.00    +0.000 HD
ENDBRANCH  11  13
ENDBRANCH   8  11
ENDBRANCH   1   8
TORSDOF 7
