REMARK  Name = Succinic acid
REMARK  5 active torsions:
REMARK  status: ('A' for Active; 'I' for Inactive)
REMARK    1  A    between atoms: O_1  and  C_2
REMARK    2  A    between atoms: C_2  and  C_4
REMARK    3  A    between atoms: C_4  and  C_5
REMARK    4  A    between atoms: C_5  and  C_6
REMARK    5  A    between atoms: C_6  and  O_7
REMARK                            x       y       z     vdW  Elec       q    Type
REMARK                         _______ _______ _______ _____ _____    ______ ____
ROOT
ATOM      1  C   UNL     1       3.155   0.392  -1.262  0.00  0.00    +0.000 C 
ENDROOT
BRANCH   1   2
ATOM      2  C   UNL     1       2.467  -0.086  -0.007  0.00  0.00    +0.000 C 
ATOM      3  O   UNL     1       3.048  -0.469   0.997  0.00  0.00    +0.000 OA
BRANCH   2   4
ATOM      4  O   UNL     1       1.119  -0.058  -0.083  0.00  0.00    +0.000 OA
ATOM      5  H   UNL     1       0.731   0.261  -0.918  0.00  0.00    +0.000 HD
ENDBRANCH   2   4
ENDBRANCH   1   2
BRANCH   1   6
ATOM      6  C   UNL     1       4.672   0.333  -1.106  0.00  0.00    +0.000 C 
BRANCH   6   7
ATOM      7  C   UNL     1       5.498   0.783  -2.288  0.00  0.00    +0.000 C 
ATOM      8  O   UNL     1       6.722   0.774  -2.264  0.00  0.00    +0.000 OA
BRANCH   7   9
ATOM      9  O   UNL     1       4.836   1.201  -3.383  0.00  0.00    +0.000 OA
ATOM     10  H   UNL     1       3.866   1.196  -3.372  0.00  0.00    +0.000 HD
ENDBRANCH   7   9
ENDBRANCH   6   7
ENDBRANCH   1   6
TORSDOF 5
