REMARK  Name = Succinylcholine
REMARK  17 active torsions:
REMARK  status: ('A' for Active; 'I' for Inactive)
REMARK    1  A    between atoms: C_1  and  N_2
REMARK    2  A    between atoms: N_2  and  C_3
REMARK    3  A    between atoms: N_2  and  C_4
REMARK    4  A    between atoms: N_2  and  C_5
REMARK    5  A    between atoms: C_5  and  C_6
REMARK    6  A    between atoms: C_6  and  O_7
REMARK    7  A    between atoms: O_7  and  C_8
REMARK    8  A    between atoms: C_8  and  C_10
REMARK    9  A    between atoms: C_10  and  C_11
REMARK   10  A    between atoms: C_11  and  C_12
REMARK   11  A    between atoms: C_12  and  O_14
REMARK   12  A    between atoms: O_14  and  C_15
REMARK   13  A    between atoms: C_15  and  C_16
REMARK   14  A    between atoms: C_16  and  N_17
REMARK   15  A    between atoms: N_17  and  C_18
REMARK   16  A    between atoms: N_17  and  C_19
REMARK   17  A    between atoms: N_17  and  C_20
REMARK                            x       y       z     vdW  Elec       q    Type
REMARK                         _______ _______ _______ _____ _____    ______ ____
ROOT
ATOM      1  C   UNL     1       6.831   2.775  -3.508  0.00  0.00    +0.000 C 
ENDROOT
BRANCH   1   2
ATOM      2  C   UNL     1       6.365   1.895  -2.381  0.00  0.00    +0.000 C 
ATOM      3  O   UNL     1       7.105   1.295  -1.612  0.00  0.00    +0.000 OA
BRANCH   2   4
ATOM      4  O   UNL     1       4.998   1.849  -2.321  0.00  0.00    +0.000 OA
BRANCH   4   5
ATOM      5  C   UNL     1       4.537   1.013  -1.251  0.00  0.00    +0.000 C 
BRANCH   5   6
ATOM      6  C   UNL     1       3.002   0.967  -1.190  0.00  0.00    +0.000 C 
BRANCH   6   8
ATOM      7  C   UNL     1       0.938   0.086  -0.062  0.00  0.00    +0.000 C 
ATOM      8  N   UNL     1       2.470   0.071  -0.043  0.00  0.00    +0.000 N 
ATOM      9  C   UNL     1       2.928   0.597   1.314  0.00  0.00    +0.000 C 
ATOM     10  C   UNL     1       2.928  -1.373  -0.223  0.00  0.00    +0.000 C 
ENDBRANCH   6   8
ENDBRANCH   5   6
ENDBRANCH   4   5
ENDBRANCH   2   4
ENDBRANCH   1   2
BRANCH   1  11
ATOM     11  C   UNL     1       8.360   2.821  -3.568  0.00  0.00    +0.000 C 
BRANCH  11  12
ATOM     12  C   UNL     1       8.825   3.701  -4.695  0.00  0.00    +0.000 C 
ATOM     13  O   UNL     1       8.085   4.301  -5.464  0.00  0.00    +0.000 OA
BRANCH  12  14
ATOM     14  O   UNL     1      10.193   3.747  -4.754  0.00  0.00    +0.000 OA
BRANCH  14  15
ATOM     15  C   UNL     1      10.653   4.583  -5.825  0.00  0.00    +0.000 C 
BRANCH  15  16
ATOM     16  C   UNL     1      12.189   4.630  -5.885  0.00  0.00    +0.000 C 
BRANCH  16  17
ATOM     17  N   UNL     1      12.721   5.525  -7.033  0.00  0.00    +0.000 N 
ATOM     18  C   UNL     1      12.262   4.999  -8.390  0.00  0.00    +0.000 C 
ATOM     19  C   UNL     1      12.262   6.969  -6.853  0.00  0.00    +0.000 C 
ATOM     20  C   UNL     1      14.253   5.510  -7.013  0.00  0.00    +0.000 C 
ENDBRANCH  16  17
ENDBRANCH  15  16
ENDBRANCH  14  15
ENDBRANCH  12  14
ENDBRANCH  11  12
ENDBRANCH   1  11
TORSDOF 11
