REMARK  Name = Sucrose
REMARK  13 active torsions:
REMARK  status: ('A' for Active; 'I' for Inactive)
REMARK    1  A    between atoms: O_1  and  C_2
REMARK    2  A    between atoms: C_2  and  C_3
REMARK    3  A    between atoms: C_5  and  C_6
REMARK    4  A    between atoms: C_5  and  O_8
REMARK    5  A    between atoms: C_6  and  O_7
REMARK    6  A    between atoms: O_8  and  C_9
REMARK    7  A    between atoms: C_11  and  C_12
REMARK    8  A    between atoms: C_12  and  O_13
REMARK    9  A    between atoms: C_14  and  O_15
REMARK   10  A    between atoms: C_16  and  O_17
REMARK   11  A    between atoms: C_18  and  O_19
REMARK   12  A    between atoms: C_20  and  O_21
REMARK   13  A    between atoms: C_22  and  O_23
REMARK                            x       y       z     vdW  Elec       q    Type
REMARK                         _______ _______ _______ _____ _____    ______ ____
ROOT
ATOM      1  O   UNL     1       2.271  -2.968  -3.314  0.00  0.00    +0.000 OA
ENDROOT
BRANCH   1   2
ATOM      2  C   UNL     1       3.622  -2.666  -3.646  0.00  0.00    +0.000 C 
ATOM      3  O   UNL     1       4.543  -3.252  -2.730  0.00  0.00    +0.000 OA
ATOM      4  C   UNL     1       4.485  -4.677  -2.636  0.00  0.00    +0.000 C 
ATOM      5  C   UNL     1       4.965  -5.269  -3.934  0.00  0.00    +0.000 C 
ATOM      6  C   UNL     1       4.135  -4.672  -5.095  0.00  0.00    +0.000 C 
ATOM      7  C   UNL     1       4.057  -3.134  -5.043  0.00  0.00    +0.000 C 
BRANCH   5   8
ATOM      8  O   UNL     1       4.825  -6.686  -3.898  0.00  0.00    +0.000 OA
ATOM      9  H   UNL     1       3.920  -6.899  -3.609  0.00  0.00    +0.000 HD
ENDBRANCH   5   8
BRANCH   6  10
ATOM     10  O   UNL     1       4.714  -5.082  -6.337  0.00  0.00    +0.000 OA
ATOM     11  H   UNL     1       5.649  -4.813  -6.325  0.00  0.00    +0.000 HD
ENDBRANCH   6  10
BRANCH   7  12
ATOM     12  O   UNL     1       3.223  -2.591  -6.067  0.00  0.00    +0.000 OA
ATOM     13  H   UNL     1       2.323  -2.934  -5.926  0.00  0.00    +0.000 HD
ENDBRANCH   7  12
BRANCH   4  14
ATOM     14  C   UNL     1       5.250  -5.085  -1.341  0.00  0.00    +0.000 C 
BRANCH  14  15
ATOM     15  O   UNL     1       6.455  -5.788  -1.519  0.00  0.00    +0.000 OA
ATOM     16  H   UNL     1       7.086  -5.182  -1.935  0.00  0.00    +0.000 HD
ENDBRANCH  14  15
ENDBRANCH   4  14
ENDBRANCH   1   2
BRANCH   1  19
ATOM     17  C   UNL     1       2.780  -0.466  -1.232  0.00  0.00    +0.000 C 
ATOM     18  O   UNL     1       1.742  -0.940  -2.154  0.00  0.00    +0.000 OA
ATOM     19  C   UNL     1       1.696  -2.383  -2.108  0.00  0.00    +0.000 C 
ATOM     20  C   UNL     1       2.373  -2.684  -0.765  0.00  0.00    +0.000 C 
ATOM     21  C   UNL     1       3.526  -1.692  -0.714  0.00  0.00    +0.000 C 
BRANCH  20  22
ATOM     22  O   UNL     1       2.615  -4.038  -0.539  0.00  0.00    +0.000 OA
ATOM     23  H   UNL     1       3.570  -4.081  -0.672  0.00  0.00    +0.000 HD
ENDBRANCH  20  22
BRANCH  21  24
ATOM     24  O   UNL     1       4.132  -1.602   0.565  0.00  0.00    +0.000 OA
ATOM     25  H   UNL     1       3.449  -1.536   1.248  0.00  0.00    +0.000 HD
ENDBRANCH  21  24
BRANCH  17  26
ATOM     26  C   UNL     1       3.679   0.527  -1.966  0.00  0.00    +0.000 C 
BRANCH  26  27
ATOM     27  O   UNL     1       3.683   1.751  -1.243  0.00  0.00    +0.000 OA
ATOM     28  H   UNL     1       4.233   2.377  -1.744  0.00  0.00    +0.000 HD
ENDBRANCH  26  27
ENDBRANCH  17  26
BRANCH  19  29
ATOM     29  C   UNL     1       0.220  -2.905  -2.081  0.00  0.00    +0.000 C 
BRANCH  29  30
ATOM     30  O   UNL     1      -0.302  -3.241  -0.790  0.00  0.00    +0.000 OA
ATOM     31  H   UNL     1      -0.164  -2.493  -0.188  0.00  0.00    +0.000 HD
ENDBRANCH  29  30
ENDBRANCH  19  29
ENDBRANCH   1  19
TORSDOF 13
