REMARK  Name = Sufentanil
REMARK  10 active torsions:
REMARK  status: ('A' for Active; 'I' for Inactive)
REMARK    1  A    between atoms: C_1  and  C_2
REMARK    2  A    between atoms: C_2  and  C_3
REMARK    3  A    between atoms: N_5  and  C_6
REMARK    4  A    between atoms: N_5  and  C_12
REMARK    5  A    between atoms: C_12  and  C_13
REMARK    6  A    between atoms: C_13  and  O_14
REMARK    7  A    between atoms: O_14  and  C_15
REMARK    8  A    between atoms: N_18  and  C_19
REMARK    9  A    between atoms: C_19  and  C_20
REMARK   10  A    between atoms: C_20  and  C_21
REMARK                            x       y       z     vdW  Elec       q    Type
REMARK                         _______ _______ _______ _____ _____    ______ ____
ROOT
ATOM      1  C   UNL     1       4.928  -1.586   2.549  0.00  0.00    +0.000 C 
ATOM      2  C   UNL     1       6.478  -1.585   2.729  0.00  0.00    +0.000 C 
ATOM      3  C   UNL     1       7.175  -2.522   1.766  0.00  0.00    +0.000 C 
ATOM      4  N   UNL     1       6.582  -3.844   1.562  0.00  0.00    +0.000 NA
ATOM      5  C   UNL     1       5.119  -3.794   1.387  0.00  0.00    +0.000 C 
ATOM      6  C   UNL     1       4.470  -3.062   2.526  0.00  0.00    +0.000 C 
ENDROOT
BRANCH   1   9
ATOM      7  C   UNL     1       2.966  -0.693   1.194  0.00  0.00    +0.000 C 
ATOM      8  O   UNL     1       2.195  -1.175   2.004  0.00  0.00    +0.000 OA
ATOM      9  N   UNL     1       4.372  -0.821   1.295  0.00  0.00    +0.000 N 
BRANCH   9  10
ATOM     10  C   UNL     1       5.243  -0.150   0.347  0.00  0.00    +0.000 A 
ATOM     11  C   UNL     1       6.157  -0.809  -0.476  0.00  0.00    +0.000 A 
ATOM     12  C   UNL     1       7.262  -0.145  -1.019  0.00  0.00    +0.000 A 
ATOM     13  C   UNL     1       7.169   1.213  -1.219  0.00  0.00    +0.000 A 
ATOM     14  C   UNL     1       6.064   1.882  -0.709  0.00  0.00    +0.000 A 
ATOM     15  C   UNL     1       5.181   1.226   0.160  0.00  0.00    +0.000 A 
ENDBRANCH   9  10
BRANCH   7  17
ATOM     16  C   UNL     1       0.891   0.053  -0.016  0.00  0.00    +0.000 C 
ATOM     17  C   UNL     1       2.407   0.050  -0.016  0.00  0.00    +0.000 C 
ENDBRANCH   7  17
ENDBRANCH   1   9
BRANCH   1  18
ATOM     18  C   UNL     1       4.359  -0.983   3.886  0.00  0.00    +0.000 C 
BRANCH  18  19
ATOM     19  O   UNL     1       4.857  -1.719   5.020  0.00  0.00    +0.000 OA
ATOM     20  C   UNL     1       4.320  -1.244   6.241  0.00  0.00    +0.000 C 
ENDBRANCH  18  19
ENDBRANCH   1  18
BRANCH   4  21
ATOM     21  C   UNL     1       7.168  -4.463   0.360  0.00  0.00    +0.000 C 
BRANCH  21  22
ATOM     22  C   UNL     1       6.793  -5.942   0.277  0.00  0.00    +0.000 C 
BRANCH  22  23
ATOM     23  C   UNL     1       7.354  -6.608  -0.933  0.00  0.00    +0.000 A 
ATOM     24  C   UNL     1       7.999  -6.048  -2.016  0.00  0.00    +0.000 A 
ATOM     25  C   UNL     1       8.292  -7.007  -3.018  0.00  0.00    +0.000 A 
ATOM     26  C   UNL     1       7.876  -8.268  -2.660  0.00  0.00    +0.000 A 
ATOM     27  S   UNL     1       7.144  -8.296  -1.118  0.00  0.00    +0.000 S 
ENDBRANCH  22  23
ENDBRANCH  21  22
ENDBRANCH   4  21
TORSDOF 8
