REMARK  Name = Sulbactam
REMARK  4 active torsions:
REMARK  status: ('A' for Active; 'I' for Inactive)
REMARK    1  A    between atoms: C_7  and  C_9
REMARK    2  A    between atoms: C_9  and  O_10
REMARK    3  A    between atoms: C_12  and  C_13
REMARK    4  A    between atoms: C_12  and  C_14
REMARK                            x       y       z     vdW  Elec       q    Type
REMARK                         _______ _______ _______ _____ _____    ______ ____
ROOT
ATOM      1  C   UNL     1       2.036   0.048   0.153  0.00  0.00    +0.000 C 
ATOM      2  C   UNL     1       2.682  -1.070   0.981  0.00  0.00    +0.000 C 
ATOM      3  C   UNL     1       3.492  -1.385  -0.290  0.00  0.00    +0.000 C 
ATOM      4  O   UNL     1       4.465  -2.050  -0.547  0.00  0.00    +0.000 OA
ATOM      5  N   UNL     1       2.896  -0.370  -0.986  0.00  0.00    +0.000 N 
ATOM      6  C   UNL     1       3.675   0.685  -1.687  0.00  0.00    +0.000 C 
ATOM      7  C   UNL     1       4.116   1.677  -0.584  0.00  0.00    +0.000 C 
ATOM      8  C   UNL     1       4.674   3.042  -1.019  0.00  0.00    +0.000 C 
ATOM      9  C   UNL     1       5.272   1.123   0.284  0.00  0.00    +0.000 C 
ATOM     10  S   UNL     1       2.583   1.761   0.380  0.00  0.00    +0.000 S 
ATOM     11  O   UNL     1       2.887   2.011   1.773  0.00  0.00    +0.000 OA
ATOM     12  O   UNL     1       1.700   2.650  -0.356  0.00  0.00    +0.000 OA
ENDROOT
BRANCH   6  13
ATOM     13  C   UNL     1       2.751   1.138  -2.853  0.00  0.00    +0.000 C 
ATOM     14  O   UNL     1       2.144   0.329  -3.548  0.00  0.00    +0.000 OA
BRANCH  13  15
ATOM     15  O   UNL     1       2.665   2.441  -3.164  0.00  0.00    +0.000 OA
ATOM     16  H   UNL     1       2.706   3.102  -2.453  0.00  0.00    +0.000 HD
ENDBRANCH  13  15
ENDBRANCH   6  13
TORSDOF 2
