REMARK  Name = Sulconazole
REMARK  6 active torsions:
REMARK  status: ('A' for Active; 'I' for Inactive)
REMARK    1  A    between atoms: C_5  and  C_6
REMARK    2  A    between atoms: C_6  and  S_7
REMARK    3  A    between atoms: S_7  and  C_8
REMARK    4  A    between atoms: C_8  and  C_9
REMARK    5  A    between atoms: C_8  and  C_15
REMARK    6  A    between atoms: C_9  and  N_10
REMARK                            x       y       z     vdW  Elec       q    Type
REMARK                         _______ _______ _______ _____ _____    ______ ____
ROOT
ATOM      1  C   UNL     1       6.354   1.656   0.095  0.00  0.00    +0.000 C 
ENDROOT
BRANCH   1   2
ATOM      2  C   UNL     1       6.889   3.135   0.143  0.00  0.00    +0.000 A 
ATOM      3  C   UNL     1       8.266   3.440   0.139  0.00  0.00    +0.000 A 
ATOM      4 CL   UNL     1       9.502   2.239   0.281  0.00  0.00    +0.000 Cl
ATOM      5  C   UNL     1       8.722   4.768   0.073  0.00  0.00    +0.000 A 
ATOM      6  C   UNL     1       7.824   5.828   0.092  0.00  0.00    +0.000 A 
ATOM      7 CL   UNL     1       8.394   7.448   0.059  0.00  0.00    +0.000 Cl
ATOM      8  C   UNL     1       6.468   5.579   0.162  0.00  0.00    +0.000 A 
ATOM      9  C   UNL     1       6.014   4.258   0.177  0.00  0.00    +0.000 A 
ENDBRANCH   1   2
BRANCH   1  10
ATOM     10  S   UNL     1       4.494   1.722   0.129  0.00  0.00    +0.000 S 
BRANCH  10  11
ATOM     11  C   UNL     1       3.794   0.085   0.513  0.00  0.00    +0.000 C 
BRANCH  11  16
ATOM     12 CL   UNL     1      -2.211  -0.075  -0.070  0.00  0.00    +0.000 Cl
ATOM     13  C   UNL     1      -0.495  -0.027  -0.023  0.00  0.00    +0.000 A 
ATOM     14  C   UNL     1       0.242  -1.209   0.008  0.00  0.00    +0.000 A 
ATOM     15  C   UNL     1       1.631  -1.159   0.145  0.00  0.00    +0.000 A 
ATOM     16  C   UNL     1       2.289   0.075   0.273  0.00  0.00    +0.000 A 
ATOM     17  C   UNL     1       1.526   1.249   0.141  0.00  0.00    +0.000 A 
ATOM     18  C   UNL     1       0.146   1.203   0.002  0.00  0.00    +0.000 A 
ENDBRANCH  11  16
ENDBRANCH  10  11
ENDBRANCH   1  10
BRANCH   1  19
ATOM     19  C   UNL     1       6.873   0.958  -1.198  0.00  0.00    +0.000 C 
BRANCH  19  20
ATOM     20  N   UNL     1       6.532  -0.440  -1.372  0.00  0.00    +0.000 N 
ATOM     21  C   UNL     1       7.309  -1.536  -1.130  0.00  0.00    +0.000 A 
ATOM     22  C   UNL     1       6.432  -2.599  -1.233  0.00  0.00    +0.000 A 
ATOM     23  N   UNL     1       5.216  -2.182  -1.694  0.00  0.00    +0.000 NA
ATOM     24  C   UNL     1       5.361  -0.883  -1.910  0.00  0.00    +0.000 A 
ENDBRANCH  19  20
ENDBRANCH   1  19
TORSDOF 6
