REMARK  Name = Sulfamethizole
REMARK  4 active torsions:
REMARK  status: ('A' for Active; 'I' for Inactive)
REMARK    1  A    between atoms: C_1  and  C_2
REMARK    2  A    between atoms: N_6  and  S_7
REMARK    3  A    between atoms: S_7  and  C_10
REMARK    4  A    between atoms: C_13  and  N_14
REMARK                            x       y       z     vdW  Elec       q    Type
REMARK                         _______ _______ _______ _____ _____    ______ ____
ROOT
ATOM      1  S   UNL     1       4.201  -0.487   0.004  0.00  0.00    +0.000 S 
ATOM      2  O   UNL     1       4.199  -1.184   1.277  0.00  0.00    +0.000 OA
ATOM      3  O   UNL     1       4.204  -1.182  -1.262  0.00  0.00    +0.000 OA
ENDROOT
BRANCH   1   9
ATOM      4  C   UNL     1      -2.243  -0.194   0.003  0.00  0.00    +0.000 C 
ATOM      5  C   UNL     1      -0.753  -0.269   0.000  0.00  0.00    +0.000 A 
ATOM      6  N   UNL     1      -0.068  -1.392  -0.001  0.00  0.00    +0.000 NA
ATOM      7  N   UNL     1       1.301  -1.180  -0.000  0.00  0.00    +0.000 NA
ATOM      8  C   UNL     1       1.614   0.093   0.002  0.00  0.00    +0.000 A 
ATOM      9  N   UNL     1       2.936   0.604   0.004  0.00  0.00    +0.000 N 
ATOM     10  S   UNL     1       0.242   1.138   0.001  0.00  0.00    +0.000 S 
ATOM     11  H   UNL     1       3.060   1.603   0.005  0.00  0.00    +0.000 HD
ENDBRANCH   1   9
BRANCH   1  12
ATOM     12  C   UNL     1       5.725   0.479   0.011  0.00  0.00    +0.000 A 
ATOM     13  C   UNL     1       5.738   1.873   0.009  0.00  0.00    +0.000 A 
ATOM     14  C   UNL     1       6.962   2.563   0.008  0.00  0.00    +0.000 A 
ATOM     15  C   UNL     1       8.183   1.885   0.031  0.00  0.00    +0.000 A 
ATOM     16  C   UNL     1       8.165   0.490   0.021  0.00  0.00    +0.000 A 
ATOM     17  C   UNL     1       6.948  -0.214   0.014  0.00  0.00    +0.000 A 
BRANCH  15  18
ATOM     18  N   UNL     1       9.375   2.587  -0.027  0.00  0.00    +0.000 N 
ATOM     19  H   UNL     1       9.382   3.595   0.054  0.00  0.00    +0.000 HD
ATOM     20  H   UNL     1      10.260   2.105   0.061  0.00  0.00    +0.000 HD
ENDBRANCH  15  18
ENDBRANCH   1  12
TORSDOF 3
