REMARK  Name = Sulfamethoxazole
REMARK  4 active torsions:
REMARK  status: ('A' for Active; 'I' for Inactive)
REMARK    1  A    between atoms: C_1  and  C_2
REMARK    2  A    between atoms: N_5  and  S_6
REMARK    3  A    between atoms: S_6  and  C_9
REMARK    4  A    between atoms: C_12  and  N_13
REMARK                            x       y       z     vdW  Elec       q    Type
REMARK                         _______ _______ _______ _____ _____    ______ ____
ROOT
ATOM      1  S   UNL     1      -2.431  -3.267   0.032  0.00  0.00    +0.000 S 
ATOM      2  O   UNL     1      -1.854  -3.680  -1.228  0.00  0.00    +0.000 OA
ATOM      3  O   UNL     1      -1.827  -3.659   1.292  0.00  0.00    +0.000 OA
ENDROOT
BRANCH   1   8
ATOM      4  C   UNL     1       2.197   0.070   0.000  0.00  0.00    +0.000 C 
ATOM      5  C   UNL     1       0.740  -0.150  -0.002  0.00  0.00    +0.000 A 
ATOM      6  C   UNL     1      -0.027  -1.284  -0.004  0.00  0.00    +0.000 A 
ATOM      7  C   UNL     1      -1.356  -0.824   0.007  0.00  0.00    +0.000 A 
ATOM      8  N   UNL     1      -2.514  -1.595   0.019  0.00  0.00    +0.000 N 
ATOM      9  N   UNL     1      -1.406   0.513   0.007  0.00  0.00    +0.000 NA
ATOM     10  O   UNL     1      -0.078   0.938   0.001  0.00  0.00    +0.000 OA
ATOM     11  H   UNL     1      -3.390  -1.091   0.030  0.00  0.00    +0.000 HD
ENDBRANCH   1   8
BRANCH   1  12
ATOM     12  C   UNL     1      -4.087  -3.913   0.058  0.00  0.00    +0.000 A 
ATOM     13  C   UNL     1      -4.237  -5.309   0.060  0.00  0.00    +0.000 A 
ATOM     14  C   UNL     1      -5.516  -5.879   0.075  0.00  0.00    +0.000 A 
ATOM     15  C   UNL     1      -6.654  -5.072   0.109  0.00  0.00    +0.000 A 
ATOM     16  C   UNL     1      -6.489  -3.684   0.095  0.00  0.00    +0.000 A 
ATOM     17  C   UNL     1      -5.216  -3.100   0.072  0.00  0.00    +0.000 A 
BRANCH  15  18
ATOM     18  N   UNL     1      -7.919  -5.627   0.068  0.00  0.00    +0.000 N 
ATOM     19  H   UNL     1      -8.044  -6.628   0.151  0.00  0.00    +0.000 HD
ATOM     20  H   UNL     1      -8.738  -5.042   0.163  0.00  0.00    +0.000 HD
ENDBRANCH  15  18
ENDBRANCH   1  12
TORSDOF 3
