REMARK  Name = Sulfameter
REMARK  5 active torsions:
REMARK  status: ('A' for Active; 'I' for Inactive)
REMARK    1  A    between atoms: C_1  and  O_2
REMARK    2  A    between atoms: O_2  and  C_3
REMARK    3  A    between atoms: N_7  and  S_8
REMARK    4  A    between atoms: S_8  and  C_11
REMARK    5  A    between atoms: C_14  and  N_15
REMARK                            x       y       z     vdW  Elec       q    Type
REMARK                         _______ _______ _______ _____ _____    ______ ____
ROOT
ATOM      1  S   UNL     1       6.028  -1.548   5.236  0.00  0.00    +0.000 S 
ATOM      2  O   UNL     1       7.225  -1.483   4.421  0.00  0.00    +0.000 OA
ATOM      3  O   UNL     1       5.433  -0.367   5.825  0.00  0.00    +0.000 OA
ENDROOT
BRANCH   1   8
ATOM      4  C   UNL     1       3.019  -0.696   1.107  0.00  0.00    +0.000 A 
ATOM      5  C   UNL     1       2.707  -1.945   1.601  0.00  0.00    +0.000 A 
ATOM      6  N   UNL     1       3.307  -2.511   2.685  0.00  0.00    +0.000 NA
ATOM      7  C   UNL     1       4.272  -1.777   3.264  0.00  0.00    +0.000 A 
ATOM      8  N   UNL     1       4.848  -2.364   4.395  0.00  0.00    +0.000 N 
ATOM      9  N   UNL     1       4.697  -0.591   2.836  0.00  0.00    +0.000 NA
ATOM     10  C   UNL     1       4.064  -0.079   1.756  0.00  0.00    +0.000 A 
ATOM     11  H   UNL     1       4.444  -3.239   4.693  0.00  0.00    +0.000 HD
BRANCH   4  13
ATOM     12  C   UNL     1       1.021  -0.113   0.033  0.00  0.00    +0.000 C 
ATOM     13  O   UNL     1       2.450  -0.089   0.031  0.00  0.00    +0.000 OA
ENDBRANCH   4  13
ENDBRANCH   1   8
BRANCH   1  14
ATOM     14  C   UNL     1       6.464  -2.600   6.629  0.00  0.00    +0.000 A 
ATOM     15  C   UNL     1       6.977  -2.014   7.798  0.00  0.00    +0.000 A 
ATOM     16  C   UNL     1       7.255  -2.809   8.922  0.00  0.00    +0.000 A 
ATOM     17  C   UNL     1       7.011  -4.184   8.902  0.00  0.00    +0.000 A 
ATOM     18  C   UNL     1       6.537  -4.757   7.718  0.00  0.00    +0.000 A 
ATOM     19  C   UNL     1       6.276  -3.979   6.581  0.00  0.00    +0.000 A 
BRANCH  17  20
ATOM     20  N   UNL     1       7.258  -4.969  10.013  0.00  0.00    +0.000 N 
ATOM     21  H   UNL     1       7.576  -4.558  10.880  0.00  0.00    +0.000 HD
ATOM     22  H   UNL     1       7.052  -5.958  10.004  0.00  0.00    +0.000 HD
ENDBRANCH  17  20
ENDBRANCH   1  14
TORSDOF 4
