REMARK  Name = Sulfamethazine
REMARK  5 active torsions:
REMARK  status: ('A' for Active; 'I' for Inactive)
REMARK    1  A    between atoms: C_1  and  C_2
REMARK    2  A    between atoms: C_4  and  C_5
REMARK    3  A    between atoms: N_8  and  S_9
REMARK    4  A    between atoms: S_9  and  C_12
REMARK    5  A    between atoms: C_15  and  N_16
REMARK                            x       y       z     vdW  Elec       q    Type
REMARK                         _______ _______ _______ _____ _____    ______ ____
ROOT
ATOM      1  S   UNL     1       1.546  -3.855  -0.028  0.00  0.00    +0.000 S 
ATOM      2  O   UNL     1       2.194  -3.615  -1.298  0.00  0.00    +0.000 OA
ATOM      3  O   UNL     1       2.223  -3.623   1.236  0.00  0.00    +0.000 OA
ENDROOT
BRANCH   1  11
ATOM      4  C   UNL     1       2.522   1.038   0.001  0.00  0.00    +0.000 C 
ATOM      5  C   UNL     1       1.199   0.341   0.003  0.00  0.00    +0.000 A 
ATOM      6  C   UNL     1       0.008   1.036   0.008  0.00  0.00    +0.000 A 
ATOM      7  C   UNL     1      -1.151   0.277   0.001  0.00  0.00    +0.000 A 
ATOM      8  C   UNL     1      -2.488   0.971  -0.015  0.00  0.00    +0.000 C 
ATOM      9  N   UNL     1      -1.129  -1.082  -0.002  0.00  0.00    +0.000 NA
ATOM     10  C   UNL     1       0.090  -1.650  -0.004  0.00  0.00    +0.000 A 
ATOM     11  N   UNL     1       0.094  -3.047  -0.007  0.00  0.00    +0.000 N 
ATOM     12  N   UNL     1       1.249  -1.002  -0.003  0.00  0.00    +0.000 NA
ATOM     13  H   UNL     1      -0.815  -3.476  -0.001  0.00  0.00    +0.000 HD
ENDBRANCH   1  11
BRANCH   1  14
ATOM     14  C   UNL     1       1.178  -5.613  -0.026  0.00  0.00    +0.000 A 
ATOM     15  C   UNL     1       2.259  -6.511  -0.046  0.00  0.00    +0.000 A 
ATOM     16  C   UNL     1       2.029  -7.896  -0.050  0.00  0.00    +0.000 A 
ATOM     17  C   UNL     1       0.730  -8.403  -0.012  0.00  0.00    +0.000 A 
ATOM     18  C   UNL     1      -0.336  -7.498  -0.005  0.00  0.00    +0.000 A 
ATOM     19  C   UNL     1      -0.122  -6.112  -0.009  0.00  0.00    +0.000 A 
BRANCH  17  20
ATOM     20  N   UNL     1       0.493  -9.765  -0.080  0.00  0.00    +0.000 N 
ATOM     21  H   UNL     1       1.258 -10.422  -0.003  0.00  0.00    +0.000 HD
ATOM     22  H   UNL     1      -0.446 -10.126   0.027  0.00  0.00    +0.000 HD
ENDBRANCH  17  20
ENDBRANCH   1  14
TORSDOF 3
