REMARK  Name = Sulfadiazine
REMARK  3 active torsions:
REMARK  status: ('A' for Active; 'I' for Inactive)
REMARK    1  A    between atoms: N_1  and  C_2
REMARK    2  A    between atoms: C_5  and  S_8
REMARK    3  A    between atoms: S_8  and  N_11
REMARK                            x       y       z     vdW  Elec       q    Type
REMARK                         _______ _______ _______ _____ _____    ______ ____
ROOT
ATOM      1  S   UNL     1      -3.714   0.004   0.037  0.00  0.00    +0.000 S 
ATOM      2  O   UNL     1      -4.105  -0.553  -1.236  0.00  0.00    +0.000 OA
ATOM      3  O   UNL     1      -4.038  -0.662   1.288  0.00  0.00    +0.000 OA
ENDROOT
BRANCH   1   4
ATOM      4  N   UNL     1      -4.242   1.585   0.125  0.00  0.00    +0.000 N 
ATOM      5  C   UNL     1      -5.623   1.790   0.033  0.00  0.00    +0.000 A 
ATOM      6  N   UNL     1      -6.021   2.786  -0.774  0.00  0.00    +0.000 NA
ATOM      7  C   UNL     1      -7.354   3.035  -0.773  0.00  0.00    +0.000 A 
ATOM      8  C   UNL     1      -8.255   2.379   0.035  0.00  0.00    +0.000 A 
ATOM      9  C   UNL     1      -7.709   1.433   0.867  0.00  0.00    +0.000 A 
ATOM     10  N   UNL     1      -6.401   1.123   0.884  0.00  0.00    +0.000 NA
ATOM     11  H   UNL     1      -3.682   2.366  -0.174  0.00  0.00    +0.000 HD
ENDBRANCH   1   4
BRANCH   1  15
ATOM     12  C   UNL     1       0.914   0.003   0.006  0.00  0.00    +0.000 A 
ATOM     13  C   UNL     1       0.185  -1.187  -0.003  0.00  0.00    +0.000 A 
ATOM     14  C   UNL     1      -1.220  -1.169  -0.003  0.00  0.00    +0.000 A 
ATOM     15  C   UNL     1      -1.915   0.052   0.001  0.00  0.00    +0.000 A 
ATOM     16  C   UNL     1      -1.193   1.244   0.002  0.00  0.00    +0.000 A 
ATOM     17  C   UNL     1       0.211   1.211  -0.008  0.00  0.00    +0.000 A 
BRANCH  12  18
ATOM     18  N   UNL     1       2.296  -0.005  -0.052  0.00  0.00    +0.000 N 
ATOM     19  H   UNL     1       2.811  -0.871   0.031  0.00  0.00    +0.000 HD
ATOM     20  H   UNL     1       2.818   0.859   0.016  0.00  0.00    +0.000 HD
ENDBRANCH  12  18
ENDBRANCH   1  15
TORSDOF 3
