REMARK  Name = Sulfur hexafluoride
REMARK  0 active torsions:
REMARK  status: ('A' for Active; 'I' for Inactive)
REMARK                            x       y       z     vdW  Elec       q    Type
REMARK                         _______ _______ _______ _____ _____    ______ ____
ROOT
ATOM      1  F   UNL     1       0.956   0.044   0.035  0.00  0.00    +0.000 F 
ATOM      2  S   UNL     1       2.703   0.044   0.035  0.00  0.00    +0.000 S 
ATOM      3  F   UNL     1       2.703   0.105  -1.711  0.00  0.00    +0.000 F 
ATOM      4  F   UNL     1       2.703   1.789   0.096  0.00  0.00    +0.000 F 
ATOM      5  F   UNL     1       4.450   0.044   0.035  0.00  0.00    +0.000 F 
ATOM      6  F   UNL     1       2.703  -0.018   1.781  0.00  0.00    +0.000 F 
ATOM      7  F   UNL     1       2.703  -1.702  -0.026  0.00  0.00    +0.000 F 
ENDROOT
TORSDOF 0
