REMARK  Name = Sulfamerazine
REMARK  4 active torsions:
REMARK  status: ('A' for Active; 'I' for Inactive)
REMARK    1  A    between atoms: C_1  and  C_2
REMARK    2  A    between atoms: N_5  and  S_6
REMARK    3  A    between atoms: S_6  and  C_9
REMARK    4  A    between atoms: C_12  and  N_13
REMARK                            x       y       z     vdW  Elec       q    Type
REMARK                         _______ _______ _______ _____ _____    ______ ____
ROOT
ATOM      1  S   UNL     1       3.325   2.515  -0.117  0.00  0.00    +0.000 S 
ATOM      2  O   UNL     1       3.856   2.062   1.156  0.00  0.00    +0.000 OA
ATOM      3  O   UNL     1       3.785   1.972  -1.375  0.00  0.00    +0.000 OA
ENDROOT
BRANCH   1   8
ATOM      4  C   UNL     1      -2.423  -0.041  -0.007  0.00  0.00    +0.000 C 
ATOM      5  C   UNL     1      -0.918  -0.012  -0.005  0.00  0.00    +0.000 A 
ATOM      6  N   UNL     1      -0.287   1.192  -0.021  0.00  0.00    +0.000 NA
ATOM      7  C   UNL     1       1.058   1.155  -0.030  0.00  0.00    +0.000 A 
ATOM      8  N   UNL     1       1.670   2.412  -0.066  0.00  0.00    +0.000 N 
ATOM      9  N   UNL     1       1.806   0.056  -0.009  0.00  0.00    +0.000 NA
ATOM     10  C   UNL     1       1.144  -1.112   0.002  0.00  0.00    +0.000 A 
ATOM     11  C   UNL     1      -0.227  -1.209   0.001  0.00  0.00    +0.000 A 
ATOM     12  H   UNL     1       1.036   3.191  -0.126  0.00  0.00    +0.000 HD
ENDBRANCH   1   8
BRANCH   1  13
ATOM     13  C   UNL     1       3.747   4.262  -0.188  0.00  0.00    +0.000 A 
ATOM     14  C   UNL     1       2.798   5.273  -0.054  0.00  0.00    +0.000 A 
ATOM     15  C   UNL     1       3.198   6.616  -0.122  0.00  0.00    +0.000 A 
ATOM     16  C   UNL     1       4.538   6.973  -0.292  0.00  0.00    +0.000 A 
ATOM     17  C   UNL     1       5.482   5.955  -0.435  0.00  0.00    +0.000 A 
ATOM     18  C   UNL     1       5.095   4.606  -0.383  0.00  0.00    +0.000 A 
BRANCH  16  19
ATOM     19  N   UNL     1       4.899   8.304  -0.419  0.00  0.00    +0.000 N 
ATOM     20  H   UNL     1       4.226   9.034  -0.228  0.00  0.00    +0.000 HD
ATOM     21  H   UNL     1       5.875   8.567  -0.455  0.00  0.00    +0.000 HD
ENDBRANCH  16  19
ENDBRANCH   1  13
TORSDOF 3
