REMARK  Name = Sulfapyridine
REMARK  4 active torsions:
REMARK  status: ('A' for Active; 'I' for Inactive)
REMARK    1  A    between atoms: N_1  and  C_2
REMARK    2  A    between atoms: C_5  and  S_8
REMARK    3  A    between atoms: S_8  and  N_11
REMARK    4  A    between atoms: N_11  and  C_12
REMARK                            x       y       z     vdW  Elec       q    Type
REMARK                         _______ _______ _______ _____ _____    ______ ____
ROOT
ATOM      1  S   UNL     1      -3.684   0.000   0.018  0.00  0.00    +0.000 S 
ATOM      2  O   UNL     1      -4.091  -0.579  -1.251  0.00  0.00    +0.000 OA
ATOM      3  O   UNL     1      -4.022  -0.641   1.267  0.00  0.00    +0.000 OA
ENDROOT
BRANCH   1   7
ATOM      4  C   UNL     1       0.921   0.004  -0.001  0.00  0.00    +0.000 A 
ATOM      5  C   UNL     1       0.195  -1.188  -0.005  0.00  0.00    +0.000 A 
ATOM      6  C   UNL     1      -1.207  -1.170  -0.011  0.00  0.00    +0.000 A 
ATOM      7  C   UNL     1      -1.899   0.052  -0.015  0.00  0.00    +0.000 A 
ATOM      8  C   UNL     1      -1.182   1.245  -0.007  0.00  0.00    +0.000 A 
ATOM      9  C   UNL     1       0.220   1.212  -0.009  0.00  0.00    +0.000 A 
BRANCH   4  10
ATOM     10  N   UNL     1       2.303  -0.004  -0.020  0.00  0.00    +0.000 N 
ATOM     11  H   UNL     1       2.819  -0.873   0.019  0.00  0.00    +0.000 HD
ATOM     12  H   UNL     1       2.825   0.861   0.004  0.00  0.00    +0.000 HD
ENDBRANCH   4  10
ENDBRANCH   1   7
BRANCH   1  13
ATOM     13  N   UNL     1      -4.247   1.582   0.088  0.00  0.00    +0.000 N 
ATOM     14  H   UNL     1      -3.681   2.376  -0.176  0.00  0.00    +0.000 HD
BRANCH  13  15
ATOM     15  C   UNL     1      -5.646   1.804   0.065  0.00  0.00    +0.000 A 
ATOM     16  C   UNL     1      -6.504   1.128   0.915  0.00  0.00    +0.000 A 
ATOM     17  C   UNL     1      -7.862   1.426   0.888  0.00  0.00    +0.000 A 
ATOM     18  C   UNL     1      -8.323   2.407   0.024  0.00  0.00    +0.000 A 
ATOM     19  C   UNL     1      -7.388   3.068  -0.760  0.00  0.00    +0.000 A 
ATOM     20  N   UNL     1      -6.051   2.804  -0.747  0.00  0.00    +0.000 NA
ENDBRANCH  13  15
ENDBRANCH   1  13
TORSDOF 4
