REMARK  Name = Sulfoxone
REMARK  10 active torsions:
REMARK  status: ('A' for Active; 'I' for Inactive)
REMARK    1  A    between atoms: O_1  and  S_2
REMARK    2  A    between atoms: S_2  and  C_4
REMARK    3  A    between atoms: C_4  and  N_5
REMARK    4  A    between atoms: N_5  and  C_6
REMARK    5  A    between atoms: C_9  and  S_12
REMARK    6  A    between atoms: S_12  and  C_15
REMARK    7  A    between atoms: C_18  and  N_19
REMARK    8  A    between atoms: N_19  and  C_20
REMARK    9  A    between atoms: C_20  and  S_21
REMARK   10  A    between atoms: S_21  and  O_22
REMARK                            x       y       z     vdW  Elec       q    Type
REMARK                         _______ _______ _______ _____ _____    ______ ____
ROOT
ATOM      1  S   UNL     1       7.985   5.142   4.582  0.00  0.00    +0.000 S 
ATOM      2  O   UNL     1       9.238   4.472   4.901  0.00  0.00    +0.000 OA
ATOM      3  O   UNL     1       7.978   6.420   3.904  0.00  0.00    +0.000 OA
ENDROOT
BRANCH   1   7
ATOM      4  C   UNL     1       5.525   2.385   1.825  0.00  0.00    +0.000 A 
ATOM      5  C   UNL     1       6.744   2.944   1.404  0.00  0.00    +0.000 A 
ATOM      6  C   UNL     1       7.532   3.726   2.267  0.00  0.00    +0.000 A 
ATOM      7  C   UNL     1       7.057   4.026   3.546  0.00  0.00    +0.000 A 
ATOM      8  C   UNL     1       5.838   3.505   3.966  0.00  0.00    +0.000 A 
ATOM      9  C   UNL     1       5.084   2.699   3.110  0.00  0.00    +0.000 A 
BRANCH   4  10
ATOM     10  N   UNL     1       4.798   1.584   0.965  0.00  0.00    +0.000 N 
ATOM     11  H   UNL     1       5.317   0.865   0.468  0.00  0.00    +0.000 HD
BRANCH  10  12
ATOM     12  C   UNL     1       3.349   1.432   1.027  0.00  0.00    +0.000 C 
BRANCH  12  13
ATOM     13  S   UNL     1       2.881  -0.055   0.040  0.00  0.00    +0.000 S 
ATOM     14  O   UNL     1       3.196   0.186  -1.404  0.00  0.00    +0.000 OA
BRANCH  13  15
ATOM     15  O   UNL     1       1.292   0.144   0.189  0.00  0.00    +0.000 OA
ATOM     16  H   UNL     1       0.855  -0.450  -0.469  0.00  0.00    +0.000 HD
ENDBRANCH  13  15
ENDBRANCH  12  13
ENDBRANCH  10  12
ENDBRANCH   4  10
ENDBRANCH   1   7
BRANCH   1  17
ATOM     17  C   UNL     1       7.149   5.370   6.146  0.00  0.00    +0.000 A 
ATOM     18  C   UNL     1       6.759   6.637   6.581  0.00  0.00    +0.000 A 
ATOM     19  C   UNL     1       6.214   6.788   7.869  0.00  0.00    +0.000 A 
ATOM     20  C   UNL     1       5.948   5.681   8.692  0.00  0.00    +0.000 A 
ATOM     21  C   UNL     1       6.338   4.422   8.218  0.00  0.00    +0.000 A 
ATOM     22  C   UNL     1       6.954   4.264   6.972  0.00  0.00    +0.000 A 
BRANCH  20  23
ATOM     23  N   UNL     1       5.315   5.862   9.915  0.00  0.00    +0.000 N 
ATOM     24  H   UNL     1       5.065   6.800  10.194  0.00  0.00    +0.000 HD
BRANCH  23  25
ATOM     25  C   UNL     1       4.919   4.730  10.744  0.00  0.00    +0.000 C 
BRANCH  25  26
ATOM     26  S   UNL     1       4.118   5.303  12.299  0.00  0.00    +0.000 S 
ATOM     27  O   UNL     1       3.718   4.077  13.065  0.00  0.00    +0.000 OA
BRANCH  26  28
ATOM     28  O   UNL     1       2.782   5.844  11.585  0.00  0.00    +0.000 OA
ATOM     29  H   UNL     1       2.905   6.770  11.284  0.00  0.00    +0.000 HD
ENDBRANCH  26  28
ENDBRANCH  25  26
ENDBRANCH  23  25
ENDBRANCH  20  23
ENDBRANCH   1  17
TORSDOF 10
