REMARK  Name = Sulfathiazole
REMARK  3 active torsions:
REMARK  status: ('A' for Active; 'I' for Inactive)
REMARK    1  A    between atoms: N_1  and  C_2
REMARK    2  A    between atoms: C_5  and  S_8
REMARK    3  A    between atoms: S_8  and  N_11
REMARK                            x       y       z     vdW  Elec       q    Type
REMARK                         _______ _______ _______ _____ _____    ______ ____
ROOT
ATOM      1  S   UNL     1      -3.723   0.004   0.059  0.00  0.00    +0.000 S 
ATOM      2  O   UNL     1      -4.114  -0.534  -1.223  0.00  0.00    +0.000 OA
ATOM      3  O   UNL     1      -4.050  -0.660   1.309  0.00  0.00    +0.000 OA
ENDROOT
BRANCH   1   4
ATOM      4  N   UNL     1      -4.228   1.607   0.140  0.00  0.00    +0.000 N 
ATOM      5  C   UNL     1      -5.629   1.814   0.049  0.00  0.00    +0.000 A 
ATOM      6  N   UNL     1      -6.485   1.156   0.788  0.00  0.00    +0.000 NA
ATOM      7  C   UNL     1      -7.754   1.683   0.631  0.00  0.00    +0.000 A 
ATOM      8  C   UNL     1      -7.867   2.703  -0.289  0.00  0.00    +0.000 A 
ATOM      9  S   UNL     1      -6.302   3.091  -0.887  0.00  0.00    +0.000 S 
ATOM     10  H   UNL     1      -3.656   2.329  -0.271  0.00  0.00    +0.000 HD
ENDBRANCH   1   4
BRANCH   1  14
ATOM     11  C   UNL     1       0.913   0.002   0.008  0.00  0.00    +0.000 A 
ATOM     12  C   UNL     1       0.184  -1.188  -0.003  0.00  0.00    +0.000 A 
ATOM     13  C   UNL     1      -1.223  -1.171   0.002  0.00  0.00    +0.000 A 
ATOM     14  C   UNL     1      -1.919   0.049   0.014  0.00  0.00    +0.000 A 
ATOM     15  C   UNL     1      -1.195   1.241   0.009  0.00  0.00    +0.000 A 
ATOM     16  C   UNL     1       0.209   1.209  -0.007  0.00  0.00    +0.000 A 
BRANCH  11  17
ATOM     17  N   UNL     1       2.295  -0.005  -0.064  0.00  0.00    +0.000 N 
ATOM     18  H   UNL     1       2.810  -0.871   0.035  0.00  0.00    +0.000 HD
ATOM     19  H   UNL     1       2.817   0.858   0.021  0.00  0.00    +0.000 HD
ENDBRANCH  11  17
ENDBRANCH   1  14
TORSDOF 3
