REMARK  Name = Sulfanilamide
REMARK  3 active torsions:
REMARK  status: ('A' for Active; 'I' for Inactive)
REMARK    1  A    between atoms: N_1  and  C_2
REMARK    2  A    between atoms: C_5  and  S_8
REMARK    3  A    between atoms: S_8  and  N_9
REMARK                            x       y       z     vdW  Elec       q    Type
REMARK                         _______ _______ _______ _____ _____    ______ ____
ROOT
ATOM      1  C   UNL     1       0.929  -0.003   0.010  0.00  0.00    +0.000 A 
ATOM      2  C   UNL     1       0.211  -1.203  -0.006  0.00  0.00    +0.000 A 
ATOM      3  C   UNL     1      -1.189  -1.206   0.002  0.00  0.00    +0.000 A 
ATOM      4  C   UNL     1      -1.879   0.008   0.004  0.00  0.00    +0.000 A 
ATOM      5  C   UNL     1      -1.179   1.215  -0.004  0.00  0.00    +0.000 A 
ATOM      6  C   UNL     1       0.219   1.202  -0.015  0.00  0.00    +0.000 A 
ENDROOT
BRANCH   1   7
ATOM      7  N   UNL     1       2.311  -0.005  -0.119  0.00  0.00    +0.000 N 
ATOM      8  H   UNL     1       2.820  -0.862   0.060  0.00  0.00    +0.000 HD
ATOM      9  H   UNL     1       2.817   0.858   0.043  0.00  0.00    +0.000 HD
ENDBRANCH   1   7
BRANCH   4  10
ATOM     10  S   UNL     1      -3.653   0.019   0.057  0.00  0.00    +0.000 S 
ATOM     11  O   UNL     1      -4.064  -0.828   1.155  0.00  0.00    +0.000 OA
ATOM     12  O   UNL     1      -4.109   1.378  -0.099  0.00  0.00    +0.000 OA
BRANCH  10  13
ATOM     13  N   UNL     1      -4.046  -0.775  -1.356  0.00  0.00    +0.000 NA
ATOM     14  H   UNL     1      -3.941  -1.784  -1.350  0.00  0.00    +0.000 HD
ATOM     15  H   UNL     1      -3.917  -0.246  -2.213  0.00  0.00    +0.000 HD
ENDBRANCH  10  13
ENDBRANCH   4  10
TORSDOF 3
