REMARK  Name = Sulfadoxine
REMARK  8 active torsions:
REMARK  status: ('A' for Active; 'I' for Inactive)
REMARK    1  A    between atoms: C_1  and  O_2
REMARK    2  A    between atoms: O_2  and  C_3
REMARK    3  A    between atoms: C_7  and  N_8
REMARK    4  A    between atoms: N_8  and  S_9
REMARK    5  A    between atoms: S_9  and  C_12
REMARK    6  A    between atoms: C_15  and  N_16
REMARK    7  A    between atoms: C_19  and  O_20
REMARK    8  A    between atoms: O_20  and  C_21
REMARK                            x       y       z     vdW  Elec       q    Type
REMARK                         _______ _______ _______ _____ _____    ______ ____
ROOT
ATOM      1  N   UNL     1       2.921   0.170   4.807  0.00  0.00    +0.000 N 
ATOM      2  H   UNL     1       3.505   0.508   5.564  0.00  0.00    +0.000 HD
ENDROOT
BRANCH   1   7
ATOM      3  C   UNL     1       3.057   0.577   1.080  0.00  0.00    +0.000 A 
ATOM      4  N   UNL     1       4.182   1.320   1.003  0.00  0.00    +0.000 NA
ATOM      5  C   UNL     1       4.803   1.625   2.160  0.00  0.00    +0.000 A 
ATOM      6  N   UNL     1       4.408   1.288   3.404  0.00  0.00    +0.000 NA
ATOM      7  C   UNL     1       3.291   0.542   3.452  0.00  0.00    +0.000 A 
ATOM      8  C   UNL     1       2.592   0.130   2.303  0.00  0.00    +0.000 A 
BRANCH   3  10
ATOM      9  C   UNL     1       1.246   0.363  -0.500  0.00  0.00    +0.000 C 
ATOM     10  O   UNL     1       2.613   0.166  -0.154  0.00  0.00    +0.000 OA
ENDBRANCH   3  10
BRANCH   8  11
ATOM     11  O   UNL     1       1.628  -0.749   2.582  0.00  0.00    +0.000 OA
ATOM     12  C   UNL     1       0.639  -1.220   1.744  0.00  0.00    +0.000 C 
ENDBRANCH   8  11
ENDBRANCH   1   7
BRANCH   1  13
ATOM     13  S   UNL     1       1.519  -0.722   5.105  0.00  0.00    +0.000 S 
ATOM     14  O   UNL     1       0.372   0.070   4.728  0.00  0.00    +0.000 OA
ATOM     15  O   UNL     1       1.732  -2.074   4.589  0.00  0.00    +0.000 OA
BRANCH  13  16
ATOM     16  C   UNL     1       1.358  -0.971   6.831  0.00  0.00    +0.000 A 
ATOM     17  C   UNL     1       1.340  -2.285   7.314  0.00  0.00    +0.000 A 
ATOM     18  C   UNL     1       1.114  -2.517   8.661  0.00  0.00    +0.000 A 
ATOM     19  C   UNL     1       0.897  -1.445   9.525  0.00  0.00    +0.000 A 
ATOM     20  C   UNL     1       0.847  -0.142   9.010  0.00  0.00    +0.000 A 
ATOM     21  C   UNL     1       1.057   0.104   7.656  0.00  0.00    +0.000 A 
BRANCH  19  22
ATOM     22  N   UNL     1       0.704  -1.674  10.872  0.00  0.00    +0.000 N 
ATOM     23  H   UNL     1       0.767  -2.612  11.243  0.00  0.00    +0.000 HD
ATOM     24  H   UNL     1       0.570  -0.904  11.510  0.00  0.00    +0.000 HD
ENDBRANCH  19  22
ENDBRANCH  13  16
ENDBRANCH   1  13
TORSDOF 6
