REMARK  Name = Sulfisoxazole
REMARK  6 active torsions:
REMARK  status: ('A' for Active; 'I' for Inactive)
REMARK    1  A    between atoms: C_1  and  C_2
REMARK    2  A    between atoms: C_5  and  N_6
REMARK    3  A    between atoms: N_6  and  S_7
REMARK    4  A    between atoms: S_7  and  C_10
REMARK    5  A    between atoms: C_13  and  N_14
REMARK    6  A    between atoms: C_17  and  C_18
REMARK                            x       y       z     vdW  Elec       q    Type
REMARK                         _______ _______ _______ _____ _____    ______ ____
ROOT
ATOM      1  S   UNL     1       2.505   3.282  -0.044  0.00  0.00    +0.000 S 
ATOM      2  O   UNL     1       3.102   2.947   1.230  0.00  0.00    +0.000 OA
ATOM      3  O   UNL     1       3.110   2.905  -1.304  0.00  0.00    +0.000 OA
ENDROOT
BRANCH   1   4
ATOM      4  C   UNL     1       2.396   5.077  -0.080  0.00  0.00    +0.000 A 
ATOM      5  C   UNL     1       1.252   5.746  -0.519  0.00  0.00    +0.000 A 
ATOM      6  C   UNL     1       1.226   7.150  -0.531  0.00  0.00    +0.000 A 
ATOM      7  C   UNL     1       2.328   7.903  -0.117  0.00  0.00    +0.000 A 
ATOM      8  C   UNL     1       3.471   7.226   0.310  0.00  0.00    +0.000 A 
ATOM      9  C   UNL     1       3.511   5.822   0.333  0.00  0.00    +0.000 A 
BRANCH   7  10
ATOM     10  N   UNL     1       2.285   9.284  -0.138  0.00  0.00    +0.000 N 
ATOM     11  H   UNL     1       1.457   9.776  -0.446  0.00  0.00    +0.000 HD
ATOM     12  H   UNL     1       3.082   9.834   0.156  0.00  0.00    +0.000 HD
ENDBRANCH   7  10
ENDBRANCH   1   4
BRANCH   1  13
ATOM     13  N   UNL     1       0.919   2.731  -0.026  0.00  0.00    +0.000 N 
ATOM     14  H   UNL     1       0.140   3.370   0.009  0.00  0.00    +0.000 HD
BRANCH  13  19
ATOM     15  C   UNL     1      -1.190  -1.829  -0.002  0.00  0.00    +0.000 C 
ATOM     16  C   UNL     1      -0.245  -0.680  -0.000  0.00  0.00    +0.000 A 
ATOM     17  N   UNL     1       1.075  -0.892  -0.001  0.00  0.00    +0.000 NA
ATOM     18  O   UNL     1       1.658   0.364  -0.010  0.00  0.00    +0.000 OA
ATOM     19  C   UNL     1       0.694   1.328  -0.012  0.00  0.00    +0.000 A 
ATOM     20  C   UNL     1      -0.547   0.714   0.001  0.00  0.00    +0.000 A 
ATOM     21  C   UNL     1      -1.903   1.309   0.012  0.00  0.00    +0.000 C 
ENDBRANCH  13  19
ENDBRANCH   1  13
TORSDOF 4
