REMARK  Name = Sulfadimethoxine
REMARK  8 active torsions:
REMARK  status: ('A' for Active; 'I' for Inactive)
REMARK    1  A    between atoms: C_1  and  O_2
REMARK    2  A    between atoms: O_2  and  C_3
REMARK    3  A    between atoms: C_5  and  O_6
REMARK    4  A    between atoms: O_6  and  C_7
REMARK    5  A    between atoms: C_9  and  N_10
REMARK    6  A    between atoms: N_10  and  S_11
REMARK    7  A    between atoms: S_11  and  C_14
REMARK    8  A    between atoms: C_17  and  N_18
REMARK                            x       y       z     vdW  Elec       q    Type
REMARK                         _______ _______ _______ _____ _____    ______ ____
ROOT
ATOM      1  N   UNL     1       2.903  -4.488  -1.502  0.00  0.00    +0.000 N 
ATOM      2  H   UNL     1       3.469  -5.325  -1.426  0.00  0.00    +0.000 HD
ENDROOT
BRANCH   1   7
ATOM      3  C   UNL     1       3.043  -1.158   0.028  0.00  0.00    +0.000 A 
ATOM      4  N   UNL     1       4.109  -1.286   0.822  0.00  0.00    +0.000 NA
ATOM      5  C   UNL     1       4.726  -2.478   0.811  0.00  0.00    +0.000 A 
ATOM      6  N   UNL     1       4.361  -3.554   0.074  0.00  0.00    +0.000 NA
ATOM      7  C   UNL     1       3.291  -3.357  -0.723  0.00  0.00    +0.000 A 
ATOM      8  C   UNL     1       2.614  -2.165  -0.789  0.00  0.00    +0.000 A 
BRANCH   3  10
ATOM      9  C   UNL     1       1.024   0.052  -0.028  0.00  0.00    +0.000 C 
ATOM     10  O   UNL     1       2.452   0.081   0.025  0.00  0.00    +0.000 OA
ENDBRANCH   3  10
BRANCH   5  11
ATOM     11  O   UNL     1       5.813  -2.520   1.661  0.00  0.00    +0.000 OA
ATOM     12  C   UNL     1       6.525  -3.743   1.695  0.00  0.00    +0.000 C 
ENDBRANCH   5  11
ENDBRANCH   1   7
BRANCH   1  13
ATOM     13  S   UNL     1       1.554  -4.393  -2.504  0.00  0.00    +0.000 S 
ATOM     14  O   UNL     1       0.390  -4.204  -1.671  0.00  0.00    +0.000 OA
ATOM     15  O   UNL     1       1.877  -3.434  -3.549  0.00  0.00    +0.000 OA
BRANCH  13  16
ATOM     16  C   UNL     1       1.362  -5.962  -3.301  0.00  0.00    +0.000 A 
ATOM     17  C   UNL     1       1.673  -7.139  -2.628  0.00  0.00    +0.000 A 
ATOM     18  C   UNL     1       1.562  -8.361  -3.300  0.00  0.00    +0.000 A 
ATOM     19  C   UNL     1       1.099  -8.428  -4.619  0.00  0.00    +0.000 A 
ATOM     20  C   UNL     1       0.763  -7.241  -5.273  0.00  0.00    +0.000 A 
ATOM     21  C   UNL     1       0.886  -6.009  -4.620  0.00  0.00    +0.000 A 
BRANCH  19  22
ATOM     22  N   UNL     1       1.097  -9.635  -5.298  0.00  0.00    +0.000 N 
ATOM     23  H   UNL     1       1.245 -10.499  -4.793  0.00  0.00    +0.000 HD
ATOM     24  H   UNL     1       0.669  -9.701  -6.213  0.00  0.00    +0.000 HD
ENDBRANCH  19  22
ENDBRANCH  13  16
ENDBRANCH   1  13
TORSDOF 6
