REMARK  Name = Sulfasalazine
REMARK  7 active torsions:
REMARK  status: ('A' for Active; 'I' for Inactive)
REMARK    1  A    between atoms: O_1  and  C_2
REMARK    2  A    between atoms: C_2  and  C_4
REMARK    3  A    between atoms: C_6  and  N_11
REMARK    4  A    between atoms: C_9  and  O_10
REMARK    5  A    between atoms: N_12  and  C_13
REMARK    6  A    between atoms: C_16  and  S_19
REMARK    7  A    between atoms: S_19  and  N_22
REMARK                            x       y       z     vdW  Elec       q    Type
REMARK                         _______ _______ _______ _____ _____    ______ ____
ROOT
ATOM      1  C   UNL     1       8.316  -1.012   4.169  0.00  0.00    +0.000 A 
ATOM      2  C   UNL     1       9.536  -1.708   4.220  0.00  0.00    +0.000 A 
ATOM      3  C   UNL     1      10.614  -1.261   5.016  0.00  0.00    +0.000 A 
ATOM      4  C   UNL     1      10.518  -0.059   5.736  0.00  0.00    +0.000 A 
ATOM      5  C   UNL     1       9.316   0.644   5.705  0.00  0.00    +0.000 A 
ATOM      6  C   UNL     1       8.230   0.163   4.937  0.00  0.00    +0.000 A 
ENDROOT
BRANCH   4   7
ATOM      7  S   UNL     1      11.999   0.564   6.547  0.00  0.00    +0.000 S 
ATOM      8  O   UNL     1      12.272  -0.344   7.646  0.00  0.00    +0.000 OA
ATOM      9  O   UNL     1      12.961   0.750   5.484  0.00  0.00    +0.000 OA
BRANCH   7  10
ATOM     10  N   UNL     1      11.648   2.085   7.172  0.00  0.00    +0.000 N 
ATOM     11  C   UNL     1      12.645   2.747   7.935  0.00  0.00    +0.000 A 
ATOM     12  N   UNL     1      12.218   3.250   9.112  0.00  0.00    +0.000 NA
ATOM     13  C   UNL     1      13.148   3.902   9.865  0.00  0.00    +0.000 A 
ATOM     14  C   UNL     1      14.466   4.102   9.480  0.00  0.00    +0.000 A 
ATOM     15  C   UNL     1      14.852   3.628   8.235  0.00  0.00    +0.000 A 
ATOM     16  C   UNL     1      13.927   2.949   7.447  0.00  0.00    +0.000 A 
ATOM     17  H   UNL     1      10.703   2.387   7.359  0.00  0.00    +0.000 HD
ENDBRANCH   7  10
ENDBRANCH   4   7
BRANCH   1  19
ATOM     18  N   UNL     1       6.428  -0.738   2.961  0.00  0.00    +0.000 NA
ATOM     19  N   UNL     1       7.222  -1.580   3.448  0.00  0.00    +0.000 NA
BRANCH  18  22
ATOM     20  C   UNL     1       3.247  -0.911   0.964  0.00  0.00    +0.000 A 
ATOM     21  C   UNL     1       4.430  -0.450   1.589  0.00  0.00    +0.000 A 
ATOM     22  C   UNL     1       5.275  -1.301   2.327  0.00  0.00    +0.000 A 
ATOM     23  C   UNL     1       4.894  -2.652   2.400  0.00  0.00    +0.000 A 
ATOM     24  C   UNL     1       3.712  -3.125   1.794  0.00  0.00    +0.000 A 
ATOM     25  C   UNL     1       2.878  -2.249   1.096  0.00  0.00    +0.000 A 
BRANCH  20  26
ATOM     26  C   UNL     1       2.511   0.038   0.088  0.00  0.00    +0.000 C 
ATOM     27  O   UNL     1       3.110   0.860  -0.599  0.00  0.00    +0.000 OA
BRANCH  26  28
ATOM     28  O   UNL     1       1.166  -0.016   0.146  0.00  0.00    +0.000 OA
ATOM     29  H   UNL     1       0.818  -0.772   0.659  0.00  0.00    +0.000 HD
ENDBRANCH  26  28
ENDBRANCH  20  26
BRANCH  25  30
ATOM     30  O   UNL     1       1.709  -2.692   0.541  0.00  0.00    +0.000 OA
ATOM     31  H   UNL     1       1.648  -3.661   0.628  0.00  0.00    +0.000 HD
ENDBRANCH  25  30
ENDBRANCH  18  22
ENDBRANCH   1  19
TORSDOF 7
