REMARK  Name = Sulfametopyrazine
REMARK  5 active torsions:
REMARK  status: ('A' for Active; 'I' for Inactive)
REMARK    1  A    between atoms: C_1  and  O_2
REMARK    2  A    between atoms: O_2  and  C_3
REMARK    3  A    between atoms: N_9  and  S_10
REMARK    4  A    between atoms: S_10  and  C_13
REMARK    5  A    between atoms: C_16  and  N_17
REMARK                            x       y       z     vdW  Elec       q    Type
REMARK                         _______ _______ _______ _____ _____    ______ ____
ROOT
ATOM      1  S   UNL     1       3.919   2.132   0.052  0.00  0.00    +0.000 S 
ATOM      2  O   UNL     1       4.300   1.513  -1.205  0.00  0.00    +0.000 OA
ATOM      3  O   UNL     1       2.541   2.400   0.398  0.00  0.00    +0.000 OA
ENDROOT
BRANCH   1  10
ATOM      4  C   UNL     1       3.049  -0.750   0.871  0.00  0.00    +0.000 A 
ATOM      5  N   UNL     1       2.659  -2.017   1.158  0.00  0.00    +0.000 NA
ATOM      6  C   UNL     1       3.332  -2.614   2.156  0.00  0.00    +0.000 A 
ATOM      7  C   UNL     1       4.340  -1.966   2.854  0.00  0.00    +0.000 A 
ATOM      8  N   UNL     1       4.746  -0.692   2.575  0.00  0.00    +0.000 NA
ATOM      9  C   UNL     1       4.095  -0.086   1.547  0.00  0.00    +0.000 A 
ATOM     10  N   UNL     1       4.576   1.241   1.300  0.00  0.00    +0.000 N 
ATOM     11  H   UNL     1       5.326   1.584   1.890  0.00  0.00    +0.000 HD
BRANCH   4  13
ATOM     12  C   UNL     1       1.046  -0.082  -0.055  0.00  0.00    +0.000 C 
ATOM     13  O   UNL     1       2.451  -0.206  -0.228  0.00  0.00    +0.000 OA
ENDBRANCH   4  13
ENDBRANCH   1  10
BRANCH   1  14
ATOM     14  C   UNL     1       4.709   3.714   0.037  0.00  0.00    +0.000 A 
ATOM     15  C   UNL     1       3.906   4.861   0.106  0.00  0.00    +0.000 A 
ATOM     16  C   UNL     1       4.483   6.122  -0.022  0.00  0.00    +0.000 A 
ATOM     17  C   UNL     1       5.857   6.252  -0.223  0.00  0.00    +0.000 A 
ATOM     18  C   UNL     1       6.641   5.096  -0.327  0.00  0.00    +0.000 A 
ATOM     19  C   UNL     1       6.073   3.823  -0.214  0.00  0.00    +0.000 A 
BRANCH  17  20
ATOM     20  N   UNL     1       6.430   7.505  -0.307  0.00  0.00    +0.000 N 
ATOM     21  H   UNL     1       5.860   8.337  -0.244  0.00  0.00    +0.000 HD
ATOM     22  H   UNL     1       7.422   7.611  -0.467  0.00  0.00    +0.000 HD
ENDBRANCH  17  20
ENDBRANCH   1  14
TORSDOF 4
