REMARK  Name = Sulfinpyrazone
REMARK  6 active torsions:
REMARK  status: ('A' for Active; 'I' for Inactive)
REMARK    1  A    between atoms: C_3  and  C_4
REMARK    2  A    between atoms: C_4  and  C_5
REMARK    3  A    between atoms: C_5  and  S_6
REMARK    4  A    between atoms: S_6  and  C_8
REMARK    5  A    between atoms: N_16  and  C_24
REMARK    6  A    between atoms: N_17  and  C_18
REMARK                            x       y       z     vdW  Elec       q    Type
REMARK                         _______ _______ _______ _____ _____    ______ ____
ROOT
ATOM      1  O   UNL     1       1.215  -0.088   0.092  0.00  0.00    +0.000 OA
ATOM      2  C   UNL     1       2.431  -0.072  -0.075  0.00  0.00    +0.000 C 
ATOM      3  C   UNL     1       3.283   1.177   0.001  0.00  0.00    +0.000 C 
ATOM      4  C   UNL     1       4.506   0.734  -0.758  0.00  0.00    +0.000 C 
ATOM      5  O   UNL     1       5.216   1.464  -1.439  0.00  0.00    +0.000 OA
ATOM      6  N   UNL     1       4.629  -0.642  -0.470  0.00  0.00    +0.000 N 
ATOM      7  N   UNL     1       3.330  -1.144  -0.218  0.00  0.00    +0.000 N 
ENDROOT
BRANCH   7   8
ATOM      8  C   UNL     1       3.026  -2.476   0.145  0.00  0.00    +0.000 A 
ATOM      9  C   UNL     1       3.838  -3.208   1.023  0.00  0.00    +0.000 A 
ATOM     10  C   UNL     1       3.632  -4.581   1.203  0.00  0.00    +0.000 A 
ATOM     11  C   UNL     1       2.580  -5.221   0.552  0.00  0.00    +0.000 A 
ATOM     12  C   UNL     1       1.732  -4.487  -0.274  0.00  0.00    +0.000 A 
ATOM     13  C   UNL     1       1.940  -3.116  -0.460  0.00  0.00    +0.000 A 
ENDBRANCH   7   8
BRANCH   6  14
ATOM     14  C   UNL     1       5.753  -1.380  -0.914  0.00  0.00    +0.000 A 
ATOM     15  C   UNL     1       7.000  -1.028  -0.372  0.00  0.00    +0.000 A 
ATOM     16  C   UNL     1       8.168  -1.691  -0.755  0.00  0.00    +0.000 A 
ATOM     17  C   UNL     1       8.101  -2.747  -1.656  0.00  0.00    +0.000 A 
ATOM     18  C   UNL     1       6.868  -3.114  -2.198  0.00  0.00    +0.000 A 
ATOM     19  C   UNL     1       5.693  -2.439  -1.824  0.00  0.00    +0.000 A 
ENDBRANCH   6  14
BRANCH   3  20
ATOM     20  C   UNL     1       3.749   1.440   1.449  0.00  0.00    +0.000 C 
BRANCH  20  21
ATOM     21  C   UNL     1       2.628   1.843   2.411  0.00  0.00    +0.000 C 
BRANCH  21  22
ATOM     22  S   UNL     1       3.349   2.017   4.080  0.00  0.00    +0.000 S 
ATOM     23  O   UNL     1       4.252   3.215   4.055  0.00  0.00    +0.000 OA
BRANCH  22  24
ATOM     24  C   UNL     1       1.905   2.495   5.058  0.00  0.00    +0.000 A 
ATOM     25  C   UNL     1       1.662   3.834   5.388  0.00  0.00    +0.000 A 
ATOM     26  C   UNL     1       0.733   4.159   6.384  0.00  0.00    +0.000 A 
ATOM     27  C   UNL     1      -0.014   3.157   7.000  0.00  0.00    +0.000 A 
ATOM     28  C   UNL     1       0.193   1.825   6.648  0.00  0.00    +0.000 A 
ATOM     29  C   UNL     1       1.153   1.494   5.686  0.00  0.00    +0.000 A 
ENDBRANCH  22  24
ENDBRANCH  21  22
ENDBRANCH  20  21
ENDBRANCH   3  20
TORSDOF 6
