REMARK  Name = Sulfabenzamide
REMARK  4 active torsions:
REMARK  status: ('A' for Active; 'I' for Inactive)
REMARK    1  A    between atoms: N_1  and  C_2
REMARK    2  A    between atoms: C_5  and  S_8
REMARK    3  A    between atoms: S_8  and  N_11
REMARK    4  A    between atoms: C_12  and  C_14
REMARK                            x       y       z     vdW  Elec       q    Type
REMARK                         _______ _______ _______ _____ _____    ______ ____
ROOT
ATOM      1  S   UNL     1      -3.705   0.003   0.006  0.00  0.00    +0.000 S 
ATOM      2  O   UNL     1      -4.065  -0.597  -1.260  0.00  0.00    +0.000 OA
ATOM      3  O   UNL     1      -4.057  -0.592   1.279  0.00  0.00    +0.000 OA
ENDROOT
BRANCH   1   7
ATOM      4  C   UNL     1       0.919   0.004   0.007  0.00  0.00    +0.000 A 
ATOM      5  C   UNL     1       0.191  -1.186  -0.001  0.00  0.00    +0.000 A 
ATOM      6  C   UNL     1      -1.214  -1.166  -0.001  0.00  0.00    +0.000 A 
ATOM      7  C   UNL     1      -1.909   0.057   0.004  0.00  0.00    +0.000 A 
ATOM      8  C   UNL     1      -1.187   1.247   0.003  0.00  0.00    +0.000 A 
ATOM      9  C   UNL     1       0.216   1.211  -0.006  0.00  0.00    +0.000 A 
BRANCH   4  10
ATOM     10  N   UNL     1       2.301  -0.004  -0.045  0.00  0.00    +0.000 N 
ATOM     11  H   UNL     1       2.815  -0.871   0.028  0.00  0.00    +0.000 HD
ATOM     12  H   UNL     1       2.824   0.860   0.014  0.00  0.00    +0.000 HD
ENDBRANCH   4  10
ENDBRANCH   1   7
BRANCH   1  13
ATOM     13  N   UNL     1      -4.283   1.591  -0.002  0.00  0.00    +0.000 N 
ATOM     14  C   UNL     1      -5.668   1.860   0.086  0.00  0.00    +0.000 C 
ATOM     15  O   UNL     1      -6.528   0.987   0.152  0.00  0.00    +0.000 OA
ATOM     16  H   UNL     1      -3.621   2.348   0.053  0.00  0.00    +0.000 HD
BRANCH  14  17
ATOM     17  C   UNL     1      -6.097   3.290   0.060  0.00  0.00    +0.000 A 
ATOM     18  C   UNL     1      -7.200   3.685   0.838  0.00  0.00    +0.000 A 
ATOM     19  C   UNL     1      -7.750   4.966   0.700  0.00  0.00    +0.000 A 
ATOM     20  C   UNL     1      -7.164   5.885  -0.166  0.00  0.00    +0.000 A 
ATOM     21  C   UNL     1      -6.053   5.510  -0.923  0.00  0.00    +0.000 A 
ATOM     22  C   UNL     1      -5.519   4.217  -0.816  0.00  0.00    +0.000 A 
ENDBRANCH  14  17
ENDBRANCH   1  13
TORSDOF 4
