REMARK  Name = Sulfaphenazole
REMARK  5 active torsions:
REMARK  status: ('A' for Active; 'I' for Inactive)
REMARK    1  A    between atoms: N_1  and  C_2
REMARK    2  A    between atoms: C_5  and  S_8
REMARK    3  A    between atoms: S_8  and  N_11
REMARK    4  A    between atoms: N_11  and  C_12
REMARK    5  A    between atoms: N_16  and  C_17
REMARK                            x       y       z     vdW  Elec       q    Type
REMARK                         _______ _______ _______ _____ _____    ______ ____
ROOT
ATOM      1  N   UNL     1      -4.224   1.538   0.073  0.00  0.00    +0.000 N 
ATOM      2  H   UNL     1      -3.602   2.274  -0.208  0.00  0.00    +0.000 HD
ENDROOT
BRANCH   1   3
ATOM      3  C   UNL     1      -5.588   1.837   0.069  0.00  0.00    +0.000 A 
ATOM      4  C   UNL     1      -6.572   1.223   0.806  0.00  0.00    +0.000 A 
ATOM      5  C   UNL     1      -7.750   1.925   0.485  0.00  0.00    +0.000 A 
ATOM      6  N   UNL     1      -7.527   2.953  -0.339  0.00  0.00    +0.000 NA
ATOM      7  N   UNL     1      -6.209   2.865  -0.627  0.00  0.00    +0.000 N 
BRANCH   7   8
ATOM      8  C   UNL     1      -5.625   3.645  -1.645  0.00  0.00    +0.000 A 
ATOM      9  C   UNL     1      -5.692   5.040  -1.597  0.00  0.00    +0.000 A 
ATOM     10  C   UNL     1      -5.087   5.783  -2.615  0.00  0.00    +0.000 A 
ATOM     11  C   UNL     1      -4.407   5.136  -3.652  0.00  0.00    +0.000 A 
ATOM     12  C   UNL     1      -4.368   3.743  -3.704  0.00  0.00    +0.000 A 
ATOM     13  C   UNL     1      -4.975   2.992  -2.701  0.00  0.00    +0.000 A 
ENDBRANCH   7   8
ENDBRANCH   1   3
BRANCH   1  14
ATOM     14  S   UNL     1      -3.696  -0.010   0.045  0.00  0.00    +0.000 S 
ATOM     15  O   UNL     1      -4.071  -0.598  -1.223  0.00  0.00    +0.000 OA
ATOM     16  O   UNL     1      -4.038  -0.670   1.291  0.00  0.00    +0.000 OA
BRANCH  14  20
ATOM     17  C   UNL     1       0.920   0.002   0.006  0.00  0.00    +0.000 A 
ATOM     18  C   UNL     1       0.194  -1.189  -0.002  0.00  0.00    +0.000 A 
ATOM     19  C   UNL     1      -1.208  -1.176   0.004  0.00  0.00    +0.000 A 
ATOM     20  C   UNL     1      -1.901   0.045   0.018  0.00  0.00    +0.000 A 
ATOM     21  C   UNL     1      -1.184   1.241   0.011  0.00  0.00    +0.000 A 
ATOM     22  C   UNL     1       0.217   1.209  -0.006  0.00  0.00    +0.000 A 
BRANCH  17  23
ATOM     23  N   UNL     1       2.300  -0.004  -0.048  0.00  0.00    +0.000 N 
ATOM     24  H   UNL     1       2.819  -0.870   0.029  0.00  0.00    +0.000 HD
ATOM     25  H   UNL     1       2.827   0.858   0.014  0.00  0.00    +0.000 HD
ENDBRANCH  17  23
ENDBRANCH  14  20
ENDBRANCH   1  14
TORSDOF 5
