REMARK  Name = Sulfacytine
REMARK  5 active torsions:
REMARK  status: ('A' for Active; 'I' for Inactive)
REMARK    1  A    between atoms: C_1  and  C_2
REMARK    2  A    between atoms: C_2  and  N_3
REMARK    3  A    between atoms: N_7  and  S_8
REMARK    4  A    between atoms: S_8  and  C_11
REMARK    5  A    between atoms: C_14  and  N_15
REMARK                            x       y       z     vdW  Elec       q    Type
REMARK                         _______ _______ _______ _____ _____    ______ ____
ROOT
ATOM      1  S   UNL     1       3.305  -6.577  -0.593  0.00  0.00    +0.000 S 
ATOM      2  O   UNL     1       2.325  -6.773   0.454  0.00  0.00    +0.000 OA
ATOM      3  O   UNL     1       2.938  -6.366  -1.978  0.00  0.00    +0.000 OA
ENDROOT
BRANCH   1   8
ATOM      4  N   UNL     1       2.947  -1.420  -0.208  0.00  0.00    +0.000 N 
ATOM      5  C   UNL     1       4.305  -1.655  -0.019  0.00  0.00    +0.000 A 
ATOM      6  C   UNL     1       4.768  -2.890   0.217  0.00  0.00    +0.000 A 
ATOM      7  C   UNL     1       3.798  -3.962  -0.065  0.00  0.00    +0.000 A 
ATOM      8  N   UNL     1       4.305  -5.285  -0.113  0.00  0.00    +0.000 N 
ATOM      9  N   UNL     1       2.558  -3.766  -0.305  0.00  0.00    +0.000 NA
ATOM     10  C   UNL     1       2.053  -2.506  -0.266  0.00  0.00    +0.000 A 
ATOM     11  O   UNL     1       0.829  -2.378  -0.283  0.00  0.00    +0.000 OA
ATOM     12  H   UNL     1       5.276  -5.492   0.073  0.00  0.00    +0.000 HD
BRANCH   4  14
ATOM     13  C   UNL     1       0.955   0.184  -0.064  0.00  0.00    +0.000 C 
ATOM     14  C   UNL     1       2.467  -0.017  -0.107  0.00  0.00    +0.000 C 
ENDBRANCH   4  14
ENDBRANCH   1   8
BRANCH   1  15
ATOM     15  C   UNL     1       4.292  -8.076  -0.612  0.00  0.00    +0.000 A 
ATOM     16  C   UNL     1       5.658  -8.064  -0.873  0.00  0.00    +0.000 A 
ATOM     17  C   UNL     1       6.332  -9.279  -1.093  0.00  0.00    +0.000 A 
ATOM     18  C   UNL     1       5.682 -10.515  -0.986  0.00  0.00    +0.000 A 
ATOM     19  C   UNL     1       4.354 -10.514  -0.557  0.00  0.00    +0.000 A 
ATOM     20  C   UNL     1       3.639  -9.309  -0.445  0.00  0.00    +0.000 A 
BRANCH  18  21
ATOM     21  N   UNL     1       6.411 -11.705  -1.077  0.00  0.00    +0.000 N 
ATOM     22  H   UNL     1       7.245 -11.665  -1.657  0.00  0.00    +0.000 HD
ATOM     23  H   UNL     1       5.867 -12.548  -1.238  0.00  0.00    +0.000 HD
ENDBRANCH  18  21
ENDBRANCH   1  15
TORSDOF 4
