REMARK  Name = Sulfacetamide
REMARK  4 active torsions:
REMARK  status: ('A' for Active; 'I' for Inactive)
REMARK    1  A    between atoms: C_1  and  C_2
REMARK    2  A    between atoms: N_4  and  S_5
REMARK    3  A    between atoms: S_5  and  C_8
REMARK    4  A    between atoms: C_11  and  N_12
REMARK                            x       y       z     vdW  Elec       q    Type
REMARK                         _______ _______ _______ _____ _____    ______ ____
ROOT
ATOM      1  C   UNL     1       5.471   1.127   2.735  0.00  0.00    +0.000 A 
ATOM      2  C   UNL     1       5.378   2.508   2.926  0.00  0.00    +0.000 A 
ATOM      3  C   UNL     1       5.759   3.070   4.154  0.00  0.00    +0.000 A 
ATOM      4  C   UNL     1       6.263   2.276   5.189  0.00  0.00    +0.000 A 
ATOM      5  C   UNL     1       6.404   0.904   4.965  0.00  0.00    +0.000 A 
ATOM      6  C   UNL     1       6.032   0.330   3.740  0.00  0.00    +0.000 A 
ENDROOT
BRANCH   1   7
ATOM      7  S   UNL     1       5.013   0.415   1.153  0.00  0.00    +0.000 S 
ATOM      8  O   UNL     1       5.457  -0.964   1.182  0.00  0.00    +0.000 OA
ATOM      9  O   UNL     1       5.465   1.352   0.150  0.00  0.00    +0.000 OA
BRANCH   7  13
ATOM     10  C   UNL     1       1.104  -0.057   0.116  0.00  0.00    +0.000 C 
ATOM     11  C   UNL     1       2.612  -0.093   0.041  0.00  0.00    +0.000 C 
ATOM     12  O   UNL     1       3.168  -0.544  -0.954  0.00  0.00    +0.000 OA
ATOM     13  N   UNL     1       3.327   0.413   1.154  0.00  0.00    +0.000 N 
ATOM     14  H   UNL     1       2.856   0.783   1.971  0.00  0.00    +0.000 HD
ENDBRANCH   7  13
ENDBRANCH   1   7
BRANCH   4  15
ATOM     15  N   UNL     1       6.526   2.822   6.433  0.00  0.00    +0.000 N 
ATOM     16  H   UNL     1       6.489   3.823   6.573  0.00  0.00    +0.000 HD
ATOM     17  H   UNL     1       6.957   2.265   7.159  0.00  0.00    +0.000 HD
ENDBRANCH   4  15
TORSDOF 3
