REMARK  Name = Sulindac
REMARK  7 active torsions:
REMARK  status: ('A' for Active; 'I' for Inactive)
REMARK    1  A    between atoms: C_1  and  C_2
REMARK    2  A    between atoms: C_3  and  C_4
REMARK    3  A    between atoms: C_4  and  C_5
REMARK    4  A    between atoms: C_5  and  O_6
REMARK    5  A    between atoms: C_16  and  C_17
REMARK    6  A    between atoms: C_20  and  S_23
REMARK    7  A    between atoms: S_23  and  C_24
REMARK                            x       y       z     vdW  Elec       q    Type
REMARK                         _______ _______ _______ _____ _____    ______ ____
ROOT
ATOM      1  C   UNL     1       0.943  -0.499  -0.157  0.00  0.00    +0.000 C 
ATOM      2  C   UNL     1       2.419  -0.074  -0.128  0.00  0.00    +0.000 C 
ATOM      3  C   UNL     1       3.141   1.102  -0.106  0.00  0.00    +0.000 C 
ATOM      4  C   UNL     1       4.612   0.719  -0.094  0.00  0.00    +0.000 A 
ATOM      5  C   UNL     1       5.798   1.469  -0.094  0.00  0.00    +0.000 A 
ATOM      6  C   UNL     1       7.045   0.808  -0.102  0.00  0.00    +0.000 A 
ATOM      7  F   UNL     1       8.186   1.511  -0.104  0.00  0.00    +0.000 F 
ATOM      8  C   UNL     1       7.137  -0.573  -0.138  0.00  0.00    +0.000 A 
ATOM      9  C   UNL     1       5.967  -1.305  -0.192  0.00  0.00    +0.000 A 
ATOM     10  C   UNL     1       4.726  -0.676  -0.121  0.00  0.00    +0.000 A 
ATOM     11  C   UNL     1       3.366  -1.221  -0.096  0.00  0.00    +0.000 C 
ATOM     12  C   UNL     1       3.003  -2.522  -0.031  0.00  0.00    +0.000 C 
ENDROOT
BRANCH  12  13
ATOM     13  C   UNL     1       3.909  -3.677   0.037  0.00  0.00    +0.000 A 
ATOM     14  C   UNL     1       4.829  -3.805   1.088  0.00  0.00    +0.000 A 
ATOM     15  C   UNL     1       5.932  -4.659   0.951  0.00  0.00    +0.000 A 
ATOM     16  C   UNL     1       6.009  -5.546  -0.125  0.00  0.00    +0.000 A 
ATOM     17  C   UNL     1       4.965  -5.557  -1.062  0.00  0.00    +0.000 A 
ATOM     18  C   UNL     1       3.957  -4.586  -1.020  0.00  0.00    +0.000 A 
BRANCH  16  19
ATOM     19  S   UNL     1       7.528  -6.483  -0.436  0.00  0.00    +0.000 S 
ATOM     20  C   UNL     1       7.659  -7.448   1.084  0.00  0.00    +0.000 C 
ATOM     21  O   UNL     1       7.211  -7.428  -1.558  0.00  0.00    +0.000 OA
ENDBRANCH  16  19
ENDBRANCH  12  13
BRANCH   3  22
ATOM     22  C   UNL     1       2.810   2.608  -0.090  0.00  0.00    +0.000 C 
BRANCH  22  23
ATOM     23  C   UNL     1       1.371   3.191  -0.060  0.00  0.00    +0.000 C 
ATOM     24  O   UNL     1       1.075   4.358  -0.144  0.00  0.00    +0.000 OA
BRANCH  23  25
ATOM     25  O   UNL     1       0.423   2.275   0.142  0.00  0.00    +0.000 OA
ATOM     26  H   UNL     1       0.959   1.496   0.293  0.00  0.00    +0.000 HD
ENDBRANCH  23  25
ENDBRANCH  22  23
ENDBRANCH   3  22
TORSDOF 5
