REMARK  Name = Sulpiride
REMARK  9 active torsions:
REMARK  status: ('A' for Active; 'I' for Inactive)
REMARK    1  A    between atoms: C_1  and  C_2
REMARK    2  A    between atoms: C_2  and  N_3
REMARK    3  A    between atoms: C_7  and  C_8
REMARK    4  A    between atoms: C_8  and  N_9
REMARK    5  A    between atoms: C_10  and  C_12
REMARK    6  A    between atoms: C_13  and  O_14
REMARK    7  A    between atoms: O_14  and  C_15
REMARK    8  A    between atoms: C_18  and  S_20
REMARK    9  A    between atoms: S_20  and  N_21
REMARK                            x       y       z     vdW  Elec       q    Type
REMARK                         _______ _______ _______ _____ _____    ______ ____
ROOT
ATOM      1  C   UNL     1       9.034  -2.323   0.769  0.00  0.00    +0.000 A 
ATOM      2  C   UNL     1      10.253  -1.654   0.572  0.00  0.00    +0.000 A 
ATOM      3  C   UNL     1      11.363  -2.056   1.342  0.00  0.00    +0.000 A 
ATOM      4  C   UNL     1      11.240  -3.005   2.366  0.00  0.00    +0.000 A 
ATOM      5  C   UNL     1      10.001  -3.604   2.591  0.00  0.00    +0.000 A 
ATOM      6  C   UNL     1       8.902  -3.271   1.797  0.00  0.00    +0.000 A 
ENDROOT
BRANCH   1   8
ATOM      7  N   UNL     1       6.676  -1.942   0.342  0.00  0.00    +0.000 N 
ATOM      8  C   UNL     1       7.907  -2.242  -0.182  0.00  0.00    +0.000 C 
ATOM      9  O   UNL     1       8.088  -2.461  -1.373  0.00  0.00    +0.000 OA
ATOM     10  H   UNL     1       6.539  -1.863   1.342  0.00  0.00    +0.000 HD
BRANCH   7  11
ATOM     11  C   UNL     1       5.558  -1.715  -0.559  0.00  0.00    +0.000 C 
BRANCH  11  16
ATOM     12  N   UNL     1       3.121  -1.236  -0.663  0.00  0.00    +0.000 NA
ATOM     13  C   UNL     1       2.318  -2.463  -0.783  0.00  0.00    +0.000 C 
ATOM     14  C   UNL     1       2.411  -3.110   0.581  0.00  0.00    +0.000 C 
ATOM     15  C   UNL     1       3.866  -2.883   0.940  0.00  0.00    +0.000 C 
ATOM     16  C   UNL     1       4.256  -1.588   0.219  0.00  0.00    +0.000 C 
BRANCH  12  18
ATOM     17  C   UNL     1       0.946  -0.007  -0.129  0.00  0.00    +0.000 C 
ATOM     18  C   UNL     1       2.459  -0.046  -0.103  0.00  0.00    +0.000 C 
ENDBRANCH  12  18
ENDBRANCH  11  16
ENDBRANCH   7  11
ENDBRANCH   1   8
BRANCH   5  19
ATOM     19  S   UNL     1       9.817  -4.851   3.843  0.00  0.00    +0.000 S 
ATOM     20  O   UNL     1      10.306  -4.297   5.087  0.00  0.00    +0.000 OA
ATOM     21  O   UNL     1       8.502  -5.426   3.706  0.00  0.00    +0.000 OA
BRANCH  19  22
ATOM     22  N   UNL     1      10.901  -6.008   3.338  0.00  0.00    +0.000 NA
ATOM     23  H   UNL     1      11.881  -5.846   3.544  0.00  0.00    +0.000 HD
ATOM     24  H   UNL     1      10.626  -6.576   2.542  0.00  0.00    +0.000 HD
ENDBRANCH  19  22
ENDBRANCH   5  19
BRANCH   2  25
ATOM     25  O   UNL     1      10.527  -0.604  -0.269  0.00  0.00    +0.000 OA
ATOM     26  C   UNL     1       9.443   0.048  -0.931  0.00  0.00    +0.000 C 
ENDBRANCH   2  25
TORSDOF 7
