REMARK  Name = Sultopride
REMARK  10 active torsions:
REMARK  status: ('A' for Active; 'I' for Inactive)
REMARK    1  A    between atoms: C_1  and  C_2
REMARK    2  A    between atoms: C_2  and  N_3
REMARK    3  A    between atoms: C_7  and  C_8
REMARK    4  A    between atoms: C_8  and  N_9
REMARK    5  A    between atoms: C_10  and  C_12
REMARK    6  A    between atoms: C_14  and  S_20
REMARK    7  A    between atoms: C_17  and  O_18
REMARK    8  A    between atoms: O_18  and  C_19
REMARK    9  A    between atoms: S_20  and  C_23
REMARK   10  A    between atoms: C_23  and  C_24
REMARK                            x       y       z     vdW  Elec       q    Type
REMARK                         _______ _______ _______ _____ _____    ______ ____
ROOT
ATOM      1  C   UNL     1       6.185   3.697  -4.655  0.00  0.00    +0.000 A 
ATOM      2  C   UNL     1       6.786   3.334  -5.884  0.00  0.00    +0.000 A 
ATOM      3  C   UNL     1       7.053   4.310  -6.869  0.00  0.00    +0.000 A 
ATOM      4  C   UNL     1       6.634   5.621  -6.690  0.00  0.00    +0.000 A 
ATOM      5  C   UNL     1       6.075   5.984  -5.472  0.00  0.00    +0.000 A 
ATOM      6  C   UNL     1       5.889   5.058  -4.432  0.00  0.00    +0.000 A 
ENDROOT
BRANCH   1   8
ATOM      7  N   UNL     1       4.792   2.415  -3.073  0.00  0.00    +0.000 N 
ATOM      8  C   UNL     1       6.060   2.625  -3.612  0.00  0.00    +0.000 C 
ATOM      9  O   UNL     1       7.062   2.044  -3.227  0.00  0.00    +0.000 OA
ATOM     10  H   UNL     1       4.016   2.924  -3.472  0.00  0.00    +0.000 HD
BRANCH   7  11
ATOM     11  C   UNL     1       4.636   1.845  -1.726  0.00  0.00    +0.000 C 
BRANCH  11  16
ATOM     12  N   UNL     1       3.209   1.288   0.182  0.00  0.00    +0.000 NA
ATOM     13  C   UNL     1       3.160   2.045   1.416  0.00  0.00    +0.000 C 
ATOM     14  C   UNL     1       2.566   3.373   1.008  0.00  0.00    +0.000 C 
ATOM     15  C   UNL     1       3.152   3.554  -0.380  0.00  0.00    +0.000 C 
ATOM     16  C   UNL     1       3.283   2.145  -0.997  0.00  0.00    +0.000 C 
BRANCH  12  18
ATOM     17  C   UNL     1       1.067  -0.023   0.064  0.00  0.00    +0.000 C 
ATOM     18  C   UNL     1       2.588  -0.011   0.073  0.00  0.00    +0.000 C 
ENDBRANCH  12  18
ENDBRANCH  11  16
ENDBRANCH   7  11
ENDBRANCH   1   8
BRANCH   3  19
ATOM     19  S   UNL     1       8.064   3.877  -8.276  0.00  0.00    +0.000 S 
ATOM     20  O   UNL     1       9.356   3.512  -7.736  0.00  0.00    +0.000 OA
ATOM     21  O   UNL     1       7.277   2.945  -9.063  0.00  0.00    +0.000 OA
BRANCH  19  22
ATOM     22  C   UNL     1       8.300   5.358  -9.257  0.00  0.00    +0.000 C 
ATOM     23  C   UNL     1       9.167   5.080 -10.473  0.00  0.00    +0.000 C 
ENDBRANCH  19  22
ENDBRANCH   3  19
BRANCH   6  24
ATOM     24  O   UNL     1       5.482   5.729  -3.313  0.00  0.00    +0.000 OA
ATOM     25  C   UNL     1       5.302   5.013  -2.123  0.00  0.00    +0.000 C 
ENDBRANCH   6  24
TORSDOF 7
