REMARK  Name = Sultamicillin
REMARK  14 active torsions:
REMARK  status: ('A' for Active; 'I' for Inactive)
REMARK    1  A    between atoms: C_4  and  C_5
REMARK    2  A    between atoms: C_4  and  C_6
REMARK    3  A    between atoms: C_7  and  C_23
REMARK    4  A    between atoms: C_11  and  N_12
REMARK    5  A    between atoms: C_13  and  C_15
REMARK    6  A    between atoms: C_15  and  N_16
REMARK    7  A    between atoms: C_15  and  C_17
REMARK    8  A    between atoms: C_23  and  O_25
REMARK    9  A    between atoms: O_25  and  C_26
REMARK   10  A    between atoms: C_26  and  O_27
REMARK   11  A    between atoms: O_27  and  C_28
REMARK   12  A    between atoms: C_28  and  C_30
REMARK   13  A    between atoms: C_40  and  C_41
REMARK   14  A    between atoms: C_40  and  C_42
REMARK                            x       y       z     vdW  Elec       q    Type
REMARK                         _______ _______ _______ _____ _____    ______ ____
ROOT
ATOM      1  C   UNL     1       2.895   1.324  -7.375  0.00  0.00    +0.000 C 
ATOM      2  S   UNL     1       4.133   0.012  -7.123  0.00  0.00    +0.000 S 
ATOM      3  C   UNL     1       2.907  -1.284  -7.670  0.00  0.00    +0.000 C 
ATOM      4  C   UNL     1       3.390  -2.610  -7.080  0.00  0.00    +0.000 C 
ATOM      5  C   UNL     1       2.968  -1.321  -9.207  0.00  0.00    +0.000 C 
ATOM      6  C   UNL     1       1.537  -0.797  -7.091  0.00  0.00    +0.000 C 
ATOM      7  N   UNL     1       1.585   0.678  -7.120  0.00  0.00    +0.000 N 
ATOM      8  C   UNL     1       1.373   1.392  -5.962  0.00  0.00    +0.000 C 
ATOM      9  O   UNL     1       0.571   1.202  -5.080  0.00  0.00    +0.000 OA
ATOM     10  C   UNL     1       2.625   2.289  -6.214  0.00  0.00    +0.000 C 
ENDROOT
BRANCH  10  11
ATOM     11  N   UNL     1       3.643   2.373  -5.128  0.00  0.00    +0.000 N 
ATOM     12  C   UNL     1       3.392   3.200  -4.056  0.00  0.00    +0.000 C 
ATOM     13  O   UNL     1       2.332   3.827  -3.990  0.00  0.00    +0.000 OA
ATOM     14  H   UNL     1       4.466   1.780  -5.130  0.00  0.00    +0.000 HD
BRANCH  12  15
ATOM     15  C   UNL     1       4.517   3.320  -2.990  0.00  0.00    +0.000 C 
BRANCH  15  16
ATOM     16  C   UNL     1       5.121   4.717  -2.926  0.00  0.00    +0.000 A 
ATOM     17  C   UNL     1       6.429   4.904  -2.452  0.00  0.00    +0.000 A 
ATOM     18  C   UNL     1       6.922   6.194  -2.228  0.00  0.00    +0.000 A 
ATOM     19  C   UNL     1       6.155   7.310  -2.560  0.00  0.00    +0.000 A 
ATOM     20  C   UNL     1       4.873   7.143  -3.062  0.00  0.00    +0.000 A 
ATOM     21  C   UNL     1       4.359   5.861  -3.224  0.00  0.00    +0.000 A 
ENDBRANCH  15  16
BRANCH  15  22
ATOM     22  N   UNL     1       3.940   2.960  -1.679  0.00  0.00    +0.000 NA
ATOM     23  H   UNL     1       3.198   3.641  -1.486  0.00  0.00    +0.000 HD
ATOM     24  H   UNL     1       4.637   3.106  -0.952  0.00  0.00    +0.000 HD
ENDBRANCH  15  22
ENDBRANCH  12  15
ENDBRANCH  10  11
BRANCH   6  25
ATOM     25  C   UNL     1       0.298  -1.421  -7.805  0.00  0.00    +0.000 C 
ATOM     26  O   UNL     1       0.383  -2.282  -8.674  0.00  0.00    +0.000 OA
BRANCH  25  27
ATOM     27  O   UNL     1      -0.921  -1.017  -7.337  0.00  0.00    +0.000 OA
BRANCH  27  28
ATOM     28  C   UNL     1      -2.027  -1.650  -8.049  0.00  0.00    +0.000 C 
BRANCH  28  29
ATOM     29  O   UNL     1      -3.288  -1.376  -7.397  0.00  0.00    +0.000 OA
BRANCH  29  30
ATOM     30  C   UNL     1      -4.431  -1.640  -8.096  0.00  0.00    +0.000 C 
ATOM     31  O   UNL     1      -4.443  -2.274  -9.143  0.00  0.00    +0.000 OA
BRANCH  30  32
ATOM     32  C   UNL     1      -5.705  -1.055  -7.405  0.00  0.00    +0.000 C 
ATOM     33  N   UNL     1      -6.659  -0.495  -8.397  0.00  0.00    +0.000 N 
ATOM     34  C   UNL     1      -7.823  -1.159  -8.708  0.00  0.00    +0.000 C 
ATOM     35  O   UNL     1      -8.054  -2.331  -8.850  0.00  0.00    +0.000 OA
ATOM     36  C   UNL     1      -8.666   0.125  -8.586  0.00  0.00    +0.000 C 
ATOM     37  C   UNL     1      -7.381   0.776  -8.085  0.00  0.00    +0.000 C 
ATOM     38  S   UNL     1      -7.092   0.926  -6.330  0.00  0.00    +0.000 S 
ATOM     39  O   UNL     1      -6.897   2.321  -5.985  0.00  0.00    +0.000 OA
ATOM     40  O   UNL     1      -8.048   0.120  -5.593  0.00  0.00    +0.000 OA
ATOM     41  C   UNL     1      -5.464   0.063  -6.358  0.00  0.00    +0.000 C 
ATOM     42  C   UNL     1      -5.177  -0.490  -4.962  0.00  0.00    +0.000 C 
ATOM     43  C   UNL     1      -4.395   1.081  -6.794  0.00  0.00    +0.000 C 
ENDBRANCH  30  32
ENDBRANCH  29  30
ENDBRANCH  28  29
ENDBRANCH  27  28
ENDBRANCH  25  27
ENDBRANCH   6  25
TORSDOF 10
