REMARK  Name = Sulthiame
REMARK  3 active torsions:
REMARK  status: ('A' for Active; 'I' for Inactive)
REMARK    1  A    between atoms: N_1  and  S_2
REMARK    2  A    between atoms: S_2  and  C_5
REMARK    3  A    between atoms: C_8  and  N_11
REMARK                            x       y       z     vdW  Elec       q    Type
REMARK                         _______ _______ _______ _____ _____    ______ ____
ROOT
ATOM      1  C   UNL     1       3.339  -0.407  -1.685  0.00  0.00    +0.000 A 
ATOM      2  C   UNL     1       3.345  -1.718  -2.176  0.00  0.00    +0.000 A 
ATOM      3  C   UNL     1       3.913  -1.991  -3.430  0.00  0.00    +0.000 A 
ATOM      4  C   UNL     1       4.406  -0.957  -4.233  0.00  0.00    +0.000 A 
ATOM      5  C   UNL     1       4.403   0.349  -3.731  0.00  0.00    +0.000 A 
ATOM      6  C   UNL     1       3.882   0.624  -2.456  0.00  0.00    +0.000 A 
ENDROOT
BRANCH   4   7
ATOM      7  N   UNL     1       4.865  -1.250  -5.557  0.00  0.00    +0.000 N 
ATOM      8  C   UNL     1       3.970  -1.815  -6.587  0.00  0.00    +0.000 C 
ATOM      9  C   UNL     1       3.873  -0.854  -7.779  0.00  0.00    +0.000 C 
ATOM     10  C   UNL     1       5.236  -0.548  -8.406  0.00  0.00    +0.000 C 
ATOM     11  C   UNL     1       6.183   0.092  -7.397  0.00  0.00    +0.000 C 
ATOM     12  S   UNL     1       6.468  -0.997  -6.013  0.00  0.00    +0.000 S 
ATOM     13  O   UNL     1       7.179  -0.253  -4.993  0.00  0.00    +0.000 OA
ATOM     14  O   UNL     1       6.985  -2.241  -6.537  0.00  0.00    +0.000 OA
ENDBRANCH   4   7
BRANCH   1  15
ATOM     15  S   UNL     1       2.836  -0.096  -0.007  0.00  0.00    +0.000 S 
ATOM     16  O   UNL     1       3.213   1.251   0.359  0.00  0.00    +0.000 OA
ATOM     17  O   UNL     1       3.199  -1.236   0.800  0.00  0.00    +0.000 OA
BRANCH  15  18
ATOM     18  N   UNL     1       1.153  -0.111  -0.086  0.00  0.00    +0.000 NA
ATOM     19  H   UNL     1       0.791   0.194   0.823  0.00  0.00    +0.000 HD
ATOM     20  H   UNL     1       0.796  -1.036  -0.321  0.00  0.00    +0.000 HD
ENDBRANCH  15  18
ENDBRANCH   1  15
TORSDOF 3
