REMARK  Name = Sumatriptan
REMARK  9 active torsions:
REMARK  status: ('A' for Active; 'I' for Inactive)
REMARK    1  A    between atoms: C_1  and  N_2
REMARK    2  A    between atoms: N_2  and  S_3
REMARK    3  A    between atoms: S_3  and  C_6
REMARK    4  A    between atoms: C_6  and  C_7
REMARK    5  A    between atoms: C_13  and  C_14
REMARK    6  A    between atoms: C_14  and  C_15
REMARK    7  A    between atoms: C_15  and  N_16
REMARK    8  A    between atoms: N_16  and  C_17
REMARK    9  A    between atoms: N_16  and  C_18
REMARK                            x       y       z     vdW  Elec       q    Type
REMARK                         _______ _______ _______ _____ _____    ______ ____
ROOT
ATOM      1  C   UNL     1       5.444   2.911   0.289  0.00  0.00    +0.000 A 
ATOM      2  C   UNL     1       6.797   3.191   0.489  0.00  0.00    +0.000 A 
ATOM      3  C   UNL     1       7.282   4.523   0.596  0.00  0.00    +0.000 A 
ATOM      4  C   UNL     1       6.371   5.587   0.461  0.00  0.00    +0.000 A 
ATOM      5  N   UNL     1       6.514   6.955   0.486  0.00  0.00    +0.000 N 
ATOM      6  C   UNL     1       5.306   7.569   0.249  0.00  0.00    +0.000 A 
ATOM      7  C   UNL     1       4.334   6.596   0.132  0.00  0.00    +0.000 A 
ATOM      8  C   UNL     1       5.024   5.353   0.250  0.00  0.00    +0.000 A 
ATOM      9  C   UNL     1       4.616   4.019   0.184  0.00  0.00    +0.000 A 
ATOM     10  H   UNL     1       7.385   7.443   0.633  0.00  0.00    +0.000 HD
ENDROOT
BRANCH   1  11
ATOM     11  C   UNL     1       4.881   1.499   0.155  0.00  0.00    +0.000 C 
BRANCH  11  12
ATOM     12  S   UNL     1       3.044   1.515   0.128  0.00  0.00    +0.000 S 
ATOM     13  O   UNL     1       2.593   2.117  -1.108  0.00  0.00    +0.000 OA
ATOM     14  O   UNL     1       2.549   1.989   1.410  0.00  0.00    +0.000 OA
BRANCH  12  16
ATOM     15  C   UNL     1       1.034  -0.136   0.013  0.00  0.00    +0.000 C 
ATOM     16  N   UNL     1       2.526  -0.080  -0.010  0.00  0.00    +0.000 NA
ATOM     17  H   UNL     1       2.865  -0.475  -0.889  0.00  0.00    +0.000 HD
ENDBRANCH  12  16
ENDBRANCH  11  12
ENDBRANCH   1  11
BRANCH   7  18
ATOM     18  C   UNL     1       2.867   6.835  -0.128  0.00  0.00    +0.000 C 
BRANCH  18  19
ATOM     19  C   UNL     1       2.015   5.560  -0.240  0.00  0.00    +0.000 C 
BRANCH  19  20
ATOM     20  N   UNL     1       0.581   5.728  -0.511  0.00  0.00    +0.000 NA
ATOM     21  C   UNL     1       0.407   6.378  -1.807  0.00  0.00    +0.000 C 
ATOM     22  C   UNL     1      -0.033   4.389  -0.545  0.00  0.00    +0.000 C 
ENDBRANCH  19  20
ENDBRANCH  18  19
ENDBRANCH   7  18
TORSDOF 6
