REMARK  Name = Suprofen
REMARK  6 active torsions:
REMARK  status: ('A' for Active; 'I' for Inactive)
REMARK    1  A    between atoms: C_1  and  C_2
REMARK    2  A    between atoms: C_2  and  C_3
REMARK    3  A    between atoms: C_2  and  C_6
REMARK    4  A    between atoms: C_3  and  O_4
REMARK    5  A    between atoms: C_9  and  C_12
REMARK    6  A    between atoms: C_12  and  C_14
REMARK                            x       y       z     vdW  Elec       q    Type
REMARK                         _______ _______ _______ _____ _____    ______ ____
ROOT
ATOM      1  C   UNL     1       3.031   1.343  -0.095  0.00  0.00    +0.000 A 
ATOM      2  C   UNL     1       4.390   1.636   0.108  0.00  0.00    +0.000 A 
ATOM      3  C   UNL     1       4.830   2.964   0.161  0.00  0.00    +0.000 A 
ATOM      4  C   UNL     1       3.932   4.021  -0.044  0.00  0.00    +0.000 A 
ATOM      5  C   UNL     1       2.582   3.726  -0.246  0.00  0.00    +0.000 A 
ATOM      6  C   UNL     1       2.142   2.411  -0.268  0.00  0.00    +0.000 A 
ENDROOT
BRANCH   1   8
ATOM      7  C   UNL     1       1.008  -0.197  -0.036  0.00  0.00    +0.000 C 
ATOM      8  C   UNL     1       2.541  -0.100  -0.104  0.00  0.00    +0.000 C 
BRANCH   8   9
ATOM      9  C   UNL     1       3.029  -0.959  -1.267  0.00  0.00    +0.000 C 
ATOM     10  O   UNL     1       2.747  -2.151  -1.363  0.00  0.00    +0.000 OA
BRANCH   9  11
ATOM     11  O   UNL     1       3.791  -0.361  -2.207  0.00  0.00    +0.000 OA
ATOM     12  H   UNL     1       3.958   0.593  -2.086  0.00  0.00    +0.000 HD
ENDBRANCH   9  11
ENDBRANCH   8   9
ENDBRANCH   1   8
BRANCH   4  13
ATOM     13  C   UNL     1       4.442   5.427  -0.134  0.00  0.00    +0.000 C 
ATOM     14  O   UNL     1       5.658   5.609  -0.061  0.00  0.00    +0.000 OA
BRANCH  13  15
ATOM     15  C   UNL     1       3.486   6.503  -0.339  0.00  0.00    +0.000 A 
ATOM     16  C   UNL     1       2.410   6.860   0.450  0.00  0.00    +0.000 A 
ATOM     17  C   UNL     1       1.664   7.939  -0.101  0.00  0.00    +0.000 A 
ATOM     18  C   UNL     1       2.204   8.384  -1.287  0.00  0.00    +0.000 A 
ATOM     19  S   UNL     1       3.606   7.500  -1.725  0.00  0.00    +0.000 S 
ENDBRANCH  13  15
ENDBRANCH   4  13
TORSDOF 5
