REMARK  Name = Suvorexant
REMARK  4 active torsions:
REMARK  status: ('A' for Active; 'I' for Inactive)
REMARK    1  A    between atoms: C_2  and  C_3
REMARK    2  A    between atoms: C_10  and  C_12
REMARK    3  A    between atoms: C_13  and  N_19
REMARK    4  A    between atoms: C_16  and  C_17
REMARK                            x       y       z     vdW  Elec       q    Type
REMARK                         _______ _______ _______ _____ _____    ______ ____
ROOT
ATOM      1  C   UNL     1       2.059   0.004  -0.070  0.00  0.00    +0.000 C 
ATOM      2  C   UNL     1       2.463   0.106   1.415  0.00  0.00    +0.000 C 
ATOM      3  C   UNL     1       2.503  -1.340  -0.678  0.00  0.00    +0.000 C 
ATOM      4  C   UNL     1       4.010  -1.511  -0.804  0.00  0.00    +0.000 C 
ATOM      5  N   UNL     1       4.472  -0.773  -1.959  0.00  0.00    +0.000 N 
ATOM      6  C   UNL     1       4.910   0.631  -1.684  0.00  0.00    +0.000 C 
ATOM      7  C   UNL     1       3.976   1.458  -0.759  0.00  0.00    +0.000 C 
ATOM      8  N   UNL     1       2.539   1.191  -0.817  0.00  0.00    +0.000 N 
ATOM      9  C   UNL     1       1.820   1.805  -1.845  0.00  0.00    +0.000 C 
ATOM     10  O   UNL     1       2.389   2.040  -2.947  0.00  0.00    +0.000 OA
ATOM     11  C   UNL     1       4.729  -1.365  -3.178  0.00  0.00    +0.000 A 
ATOM     12  N   UNL     1       4.350  -2.478  -3.832  0.00  0.00    +0.000 NA
ATOM     13  C   UNL     1       5.154  -2.507  -5.027  0.00  0.00    +0.000 A 
ATOM     14  C   UNL     1       5.759  -1.253  -5.086  0.00  0.00    +0.000 A 
ATOM     15  O   UNL     1       5.707  -0.706  -3.852  0.00  0.00    +0.000 OA
ATOM     16  C   UNL     1       6.769  -1.030  -5.995  0.00  0.00    +0.000 A 
ATOM     17  C   UNL     1       7.715  -1.783  -5.356  0.00  0.00    +0.000 A 
ATOM     18  C   UNL     1       7.474  -3.107  -5.617  0.00  0.00    +0.000 A 
ATOM     19 CL   UNL     1       8.813  -3.586  -6.648  0.00  0.00    +0.000 Cl
ATOM     20  C   UNL     1       6.042  -3.491  -5.683  0.00  0.00    +0.000 A 
ENDROOT
BRANCH   9  21
ATOM     21  C   UNL     1       0.485   2.449  -1.543  0.00  0.00    +0.000 A 
ATOM     22  C   UNL     1      -0.227   3.273  -2.439  0.00  0.00    +0.000 A 
ATOM     23  C   UNL     1      -1.373   3.985  -2.013  0.00  0.00    +0.000 A 
ATOM     24  C   UNL     1      -1.844   3.862  -0.701  0.00  0.00    +0.000 A 
ATOM     25  C   UNL     1      -1.150   3.077   0.211  0.00  0.00    +0.000 A 
ATOM     26  C   UNL     1      -1.600   2.913   1.635  0.00  0.00    +0.000 C 
ATOM     27  C   UNL     1       0.014   2.421  -0.213  0.00  0.00    +0.000 A 
BRANCH  22  28
ATOM     28  N   UNL     1       0.205   3.465  -3.772  0.00  0.00    +0.000 N 
ATOM     29  N   UNL     1       0.231   2.444  -4.673  0.00  0.00    +0.000 NA
ATOM     30  C   UNL     1       0.724   3.051  -5.755  0.00  0.00    +0.000 A 
ATOM     31  C   UNL     1       0.821   4.427  -5.528  0.00  0.00    +0.000 A 
ATOM     32  N   UNL     1       0.371   4.716  -4.303  0.00  0.00    +0.000 NA
ENDBRANCH  22  28
ENDBRANCH   9  21
TORSDOF 2
