REMARK  Name = Synthetic camphor
REMARK  3 active torsions:
REMARK  status: ('A' for Active; 'I' for Inactive)
REMARK    1  A    between atoms: C_1  and  C_2
REMARK    2  A    between atoms: C_2  and  C_3
REMARK    3  A    between atoms: C_7  and  C_8
REMARK                            x       y       z     vdW  Elec       q    Type
REMARK                         _______ _______ _______ _____ _____    ______ ____
ROOT
ATOM      1  C   UNL     1       0.945   0.060   0.101  0.00  0.00    +0.000 C 
ATOM      2  C   UNL     1       2.485   0.075   0.104  0.00  0.00    +0.000 C 
ATOM      3  C   UNL     1       2.922   0.073   1.579  0.00  0.00    +0.000 C 
ATOM      4  C   UNL     1       3.135  -1.032  -0.764  0.00  0.00    +0.000 C 
ATOM      5  C   UNL     1       2.630  -0.684  -2.186  0.00  0.00    +0.000 C 
ATOM      6  C   UNL     1       2.618   0.865  -2.185  0.00  0.00    +0.000 C 
ATOM      7  C   UNL     1       3.093   1.214  -0.754  0.00  0.00    +0.000 C 
ATOM      8  C   UNL     1       2.801   2.624  -0.295  0.00  0.00    +0.000 C 
ATOM      9  C   UNL     1       4.566   0.799  -0.737  0.00  0.00    +0.000 C 
ATOM     10  O   UNL     1       5.527   1.555  -0.749  0.00  0.00    +0.000 OA
ATOM     11  C   UNL     1       4.652  -0.715  -0.725  0.00  0.00    +0.000 C 
ENDROOT
TORSDOF 0
