REMARK  Name = Tacrine
REMARK  1 active torsions:
REMARK  status: ('A' for Active; 'I' for Inactive)
REMARK    1  A    between atoms: N_1  and  C_2
REMARK                            x       y       z     vdW  Elec       q    Type
REMARK                         _______ _______ _______ _____ _____    ______ ____
ROOT
ATOM      1  C   UNL     1       2.291  -0.095  -0.012  0.00  0.00    +0.000 A 
ATOM      2  C   UNL     1       2.991   1.117  -0.006  0.00  0.00    +0.000 A 
ATOM      3  C   UNL     1       2.227   2.414  -0.023  0.00  0.00    +0.000 C 
ATOM      4  C   UNL     1       3.066   3.612   0.376  0.00  0.00    +0.000 C 
ATOM      5  C   UNL     1       4.352   3.600  -0.433  0.00  0.00    +0.000 C 
ATOM      6  C   UNL     1       5.188   2.380  -0.035  0.00  0.00    +0.000 C 
ATOM      7  C   UNL     1       4.392   1.089  -0.039  0.00  0.00    +0.000 A 
ATOM      8  N   UNL     1       5.100  -0.071  -0.034  0.00  0.00    +0.000 NA
ATOM      9  C   UNL     1       4.430  -1.243  -0.027  0.00  0.00    +0.000 A 
ATOM     10  C   UNL     1       5.121  -2.454  -0.030  0.00  0.00    +0.000 A 
ATOM     11  C   UNL     1       4.467  -3.694  -0.036  0.00  0.00    +0.000 A 
ATOM     12  C   UNL     1       3.082  -3.743  -0.036  0.00  0.00    +0.000 A 
ATOM     13  C   UNL     1       2.371  -2.555  -0.028  0.00  0.00    +0.000 A 
ATOM     14  C   UNL     1       3.014  -1.302  -0.023  0.00  0.00    +0.000 A 
ENDROOT
BRANCH   1  15
ATOM     15  N   UNL     1       0.894  -0.084  -0.094  0.00  0.00    +0.000 N 
ATOM     16  H   UNL     1       0.377   0.780  -0.053  0.00  0.00    +0.000 HD
ATOM     17  H   UNL     1       0.356  -0.929  -0.006  0.00  0.00    +0.000 HD
ENDBRANCH   1  15
TORSDOF 1
