REMARK  Name = Tadalafil
REMARK  2 active torsions:
REMARK  status: ('A' for Active; 'I' for Inactive)
REMARK    1  A    between atoms: C_13  and  C_22
REMARK    2  A    between atoms: N_18  and  C_19
REMARK                            x       y       z     vdW  Elec       q    Type
REMARK                         _______ _______ _______ _____ _____    ______ ____
ROOT
ATOM      1  C   UNL     1       2.174   0.047  -0.017  0.00  0.00    +0.000 C 
ATOM      2  C   UNL     1       2.610  -0.757   1.238  0.00  0.00    +0.000 C 
ATOM      3  C   UNL     1       2.157  -0.013   2.436  0.00  0.00    +0.000 A 
ATOM      4  C   UNL     1       2.091   1.361   2.400  0.00  0.00    +0.000 A 
ATOM      5  N   UNL     1       1.562   1.796   3.583  0.00  0.00    +0.000 N 
ATOM      6  C   UNL     1       1.365   0.717   4.419  0.00  0.00    +0.000 A 
ATOM      7  C   UNL     1       0.877   0.674   5.729  0.00  0.00    +0.000 A 
ATOM      8  C   UNL     1       0.823  -0.576   6.354  0.00  0.00    +0.000 A 
ATOM      9  C   UNL     1       1.236  -1.732   5.694  0.00  0.00    +0.000 A 
ATOM     10  C   UNL     1       1.700  -1.675   4.377  0.00  0.00    +0.000 A 
ATOM     11  C   UNL     1       1.762  -0.431   3.727  0.00  0.00    +0.000 A 
ATOM     12  C   UNL     1       2.573   2.236   1.290  0.00  0.00    +0.000 C 
ATOM     13  N   UNL     1       2.624   1.471   0.030  0.00  0.00    +0.000 N 
ATOM     14  C   UNL     1       2.687   2.222  -1.136  0.00  0.00    +0.000 C 
ATOM     15  O   UNL     1       2.767   3.452  -1.148  0.00  0.00    +0.000 OA
ATOM     16  C   UNL     1       2.508   1.447  -2.430  0.00  0.00    +0.000 C 
ATOM     17  N   UNL     1       2.960   0.066  -2.366  0.00  0.00    +0.000 N 
ATOM     18  C   UNL     1       3.266  -0.603  -3.615  0.00  0.00    +0.000 C 
ATOM     19  C   UNL     1       2.686  -0.714  -1.251  0.00  0.00    +0.000 C 
ATOM     20  O   UNL     1       2.744  -1.946  -1.284  0.00  0.00    +0.000 OA
ATOM     21  H   UNL     1       1.385   2.759   3.836  0.00  0.00    +0.000 HD
ENDROOT
BRANCH  12  22
ATOM     22  C   UNL     1       3.957   2.780   1.620  0.00  0.00    +0.000 A 
ATOM     23  C   UNL     1       5.043   1.903   1.806  0.00  0.00    +0.000 A 
ATOM     24  C   UNL     1       6.271   2.432   2.112  0.00  0.00    +0.000 A 
ATOM     25  C   UNL     1       6.460   3.785   2.235  0.00  0.00    +0.000 A 
ATOM     26  O   UNL     1       7.746   4.093   2.553  0.00  0.00    +0.000 OA
ATOM     27  C   UNL     1       8.312   2.772   2.694  0.00  0.00    +0.000 C 
ATOM     28  O   UNL     1       7.405   1.716   2.325  0.00  0.00    +0.000 OA
ATOM     29  C   UNL     1       5.430   4.682   2.044  0.00  0.00    +0.000 A 
ATOM     30  C   UNL     1       4.166   4.172   1.733  0.00  0.00    +0.000 A 
ENDBRANCH  12  22
TORSDOF 1
