REMARK  Name = Tafamidis
REMARK  3 active torsions:
REMARK  status: ('A' for Active; 'I' for Inactive)
REMARK    1  A    between atoms: O_1  and  C_2
REMARK    2  A    between atoms: C_2  and  C_4
REMARK    3  A    between atoms: C_9  and  C_13
REMARK                            x       y       z     vdW  Elec       q    Type
REMARK                         _______ _______ _______ _____ _____    ______ ____
ROOT
ATOM      1  C   UNL     1       3.062  -1.255   0.021  0.00  0.00    +0.000 A 
ATOM      2  C   UNL     1       2.660  -2.232  -0.905  0.00  0.00    +0.000 A 
ATOM      3  C   UNL     1       3.356  -3.447  -1.009  0.00  0.00    +0.000 A 
ATOM      4  C   UNL     1       4.454  -3.667  -0.166  0.00  0.00    +0.000 A 
ATOM      5  N   UNL     1       5.293  -4.742  -0.072  0.00  0.00    +0.000 NA
ATOM      6  C   UNL     1       6.117  -4.417   0.904  0.00  0.00    +0.000 A 
ATOM      7  O   UNL     1       5.900  -3.173   1.452  0.00  0.00    +0.000 OA
ATOM      8  C   UNL     1       4.823  -2.689   0.744  0.00  0.00    +0.000 A 
ATOM      9  C   UNL     1       4.175  -1.458   0.867  0.00  0.00    +0.000 A 
ENDROOT
BRANCH   6  10
ATOM     10  C   UNL     1       7.235  -5.209   1.404  0.00  0.00    +0.000 A 
ATOM     11  C   UNL     1       7.314  -5.627   2.738  0.00  0.00    +0.000 A 
ATOM     12  C   UNL     1       8.341  -6.490   3.141  0.00  0.00    +0.000 A 
ATOM     13 CL   UNL     1       8.408  -7.031   4.775  0.00  0.00    +0.000 Cl
ATOM     14  C   UNL     1       9.302  -6.937   2.236  0.00  0.00    +0.000 A 
ATOM     15  C   UNL     1       9.225  -6.518   0.912  0.00  0.00    +0.000 A 
ATOM     16 CL   UNL     1      10.397  -7.061  -0.226  0.00  0.00    +0.000 Cl
ATOM     17  C   UNL     1       8.199  -5.670   0.493  0.00  0.00    +0.000 A 
ENDBRANCH   6  10
BRANCH   1  18
ATOM     18  C   UNL     1       2.378   0.063   0.063  0.00  0.00    +0.000 C 
ATOM     19  O   UNL     1       2.999   1.110   0.162  0.00  0.00    +0.000 OA
BRANCH  18  20
ATOM     20  O   UNL     1       1.032   0.007   0.007  0.00  0.00    +0.000 OA
ATOM     21  H   UNL     1       0.623  -0.877   0.042  0.00  0.00    +0.000 HD
ENDBRANCH  18  20
ENDBRANCH   1  18
TORSDOF 3
