REMARK  Name = Tafenoquine
REMARK  15 active torsions:
REMARK  status: ('A' for Active; 'I' for Inactive)
REMARK    1  A    between atoms: C_1  and  O_2
REMARK    2  A    between atoms: O_2  and  C_3
REMARK    3  A    between atoms: C_5  and  C_6
REMARK    4  A    between atoms: C_8  and  O_9
REMARK    5  A    between atoms: O_9  and  C_10
REMARK    6  A    between atoms: C_14  and  C_16
REMARK    7  A    between atoms: C_20  and  O_21
REMARK    8  A    between atoms: O_21  and  C_22
REMARK    9  A    between atoms: C_24  and  N_25
REMARK   10  A    between atoms: N_25  and  C_26
REMARK   11  A    between atoms: C_26  and  C_27
REMARK   12  A    between atoms: C_26  and  C_28
REMARK   13  A    between atoms: C_28  and  C_29
REMARK   14  A    between atoms: C_29  and  C_30
REMARK   15  A    between atoms: C_30  and  N_31
REMARK                            x       y       z     vdW  Elec       q    Type
REMARK                         _______ _______ _______ _____ _____    ______ ____
ROOT
ATOM      1  C   UNL     1       3.090   0.097  -1.054  0.00  0.00    +0.000 A 
ATOM      2  C   UNL     1       2.514   0.670  -2.125  0.00  0.00    +0.000 A 
ATOM      3  C   UNL     1       3.067   0.408  -3.354  0.00  0.00    +0.000 A 
ATOM      4  C   UNL     1       2.216   1.001  -4.377  0.00  0.00    +0.000 C 
ATOM      5  C   UNL     1       4.330  -0.203  -3.594  0.00  0.00    +0.000 A 
ATOM      6  C   UNL     1       5.099  -0.284  -4.830  0.00  0.00    +0.000 A 
ATOM      7  C   UNL     1       6.196  -1.181  -4.884  0.00  0.00    +0.000 A 
ATOM      8  C   UNL     1       6.522  -1.955  -3.747  0.00  0.00    +0.000 A 
ATOM      9  C   UNL     1       5.846  -1.794  -2.520  0.00  0.00    +0.000 A 
ATOM     10  C   UNL     1       4.817  -0.820  -2.418  0.00  0.00    +0.000 A 
ATOM     11  N   UNL     1       4.235  -0.563  -1.203  0.00  0.00    +0.000 NA
ENDROOT
BRANCH   1  13
ATOM     12  C   UNL     1       1.023   0.040   0.044  0.00  0.00    +0.000 C 
ATOM     13  O   UNL     1       2.457   0.065   0.157  0.00  0.00    +0.000 OA
ENDBRANCH   1  13
BRANCH   7  14
ATOM     14  O   UNL     1       7.010  -1.458  -5.967  0.00  0.00    +0.000 OA
ATOM     15  C   UNL     1       6.809  -0.734  -7.179  0.00  0.00    +0.000 C 
ENDBRANCH   7  14
BRANCH   9  16
ATOM     16  N   UNL     1       6.121  -2.718  -1.474  0.00  0.00    +0.000 N 
ATOM     17  H   UNL     1       6.929  -3.322  -1.541  0.00  0.00    +0.000 HD
BRANCH  16  18
ATOM     18  C   UNL     1       5.352  -2.697  -0.215  0.00  0.00    +0.000 C 
ATOM     19  C   UNL     1       3.894  -3.148  -0.465  0.00  0.00    +0.000 C 
BRANCH  18  20
ATOM     20  C   UNL     1       5.957  -3.610   0.861  0.00  0.00    +0.000 C 
BRANCH  20  21
ATOM     21  C   UNL     1       5.178  -3.472   2.183  0.00  0.00    +0.000 C 
BRANCH  21  22
ATOM     22  C   UNL     1       5.705  -4.418   3.245  0.00  0.00    +0.000 C 
BRANCH  22  23
ATOM     23  N   UNL     1       4.902  -4.283   4.454  0.00  0.00    +0.000 NA
ATOM     24  H   UNL     1       4.969  -3.329   4.807  0.00  0.00    +0.000 HD
ATOM     25  H   UNL     1       5.276  -4.891   5.179  0.00  0.00    +0.000 HD
ENDBRANCH  22  23
ENDBRANCH  21  22
ENDBRANCH  20  21
ENDBRANCH  18  20
ENDBRANCH  16  18
ENDBRANCH   9  16
BRANCH   6  26
ATOM     26  O   UNL     1       4.818   0.331  -6.056  0.00  0.00    +0.000 OA
BRANCH  26  27
ATOM     27  C   UNL     1       4.169   1.523  -6.313  0.00  0.00    +0.000 A 
ATOM     28  C   UNL     1       3.076   1.396  -7.198  0.00  0.00    +0.000 A 
ATOM     29  C   UNL     1       2.058   2.359  -7.219  0.00  0.00    +0.000 A 
ATOM     30  C   UNL     1       2.122   3.448  -6.345  0.00  0.00    +0.000 A 
ATOM     31  C   UNL     1       3.269   3.652  -5.537  0.00  0.00    +0.000 A 
ATOM     32  C   UNL     1       4.361   2.724  -5.606  0.00  0.00    +0.000 A 
BRANCH  31  33
ATOM     33  C   UNL     1       3.147   4.604  -4.352  0.00  0.00    +0.000 C 
ATOM     34  F   UNL     1       3.162   5.908  -4.727  0.00  0.00    +0.000 F 
ATOM     35  F   UNL     1       1.979   4.431  -3.655  0.00  0.00    +0.000 F 
ATOM     36  F   UNL     1       4.132   4.453  -3.425  0.00  0.00    +0.000 F 
ENDBRANCH  31  33
ENDBRANCH  26  27
ENDBRANCH   6  26
TORSDOF 11
