REMARK  Name = Tafluprost
REMARK  17 active torsions:
REMARK  status: ('A' for Active; 'I' for Inactive)
REMARK    1  A    between atoms: C_1  and  C_2
REMARK    2  A    between atoms: C_2  and  C_3
REMARK    3  A    between atoms: C_2  and  O_4
REMARK    4  A    between atoms: O_4  and  C_5
REMARK    5  A    between atoms: C_5  and  C_7
REMARK    6  A    between atoms: C_7  and  C_8
REMARK    7  A    between atoms: C_8  and  C_9
REMARK    8  A    between atoms: C_9  and  C_10
REMARK    9  A    between atoms: C_11  and  C_12
REMARK   10  A    between atoms: C_12  and  C_13
REMARK   11  A    between atoms: C_14  and  O_15
REMARK   12  A    between atoms: C_17  and  O_18
REMARK   13  A    between atoms: C_19  and  C_20
REMARK   14  A    between atoms: C_21  and  C_22
REMARK   15  A    between atoms: C_22  and  C_25
REMARK   16  A    between atoms: C_25  and  O_26
REMARK   17  A    between atoms: O_26  and  C_27
REMARK                            x       y       z     vdW  Elec       q    Type
REMARK                         _______ _______ _______ _____ _____    ______ ____
ROOT
ATOM      1  C   UNL     1       9.368  -1.858   7.854  0.00  0.00    +0.000 C 
ATOM      2  C   UNL     1      10.080  -0.574   8.326  0.00  0.00    +0.000 C 
ATOM      3  C   UNL     1      11.539  -0.943   8.614  0.00  0.00    +0.000 C 
ATOM      4  C   UNL     1      11.691  -2.423   8.266  0.00  0.00    +0.000 C 
ATOM      5  C   UNL     1      10.521  -2.740   7.319  0.00  0.00    +0.000 C 
ENDROOT
BRANCH   2   6
ATOM      6  O   UNL     1       9.504   0.048   9.462  0.00  0.00    +0.000 OA
ATOM      7  H   UNL     1       9.520  -0.573  10.211  0.00  0.00    +0.000 HD
ENDBRANCH   2   6
BRANCH   4   8
ATOM      8  O   UNL     1      11.663  -3.246   9.429  0.00  0.00    +0.000 OA
ATOM      9  H   UNL     1      10.906  -3.017   9.986  0.00  0.00    +0.000 HD
ENDBRANCH   4   8
BRANCH   5  10
ATOM     10  C   UNL     1      10.862  -2.379   5.890  0.00  0.00    +0.000 C 
ATOM     11  C   UNL     1      10.015  -2.575   4.865  0.00  0.00    +0.000 C 
BRANCH  11  12
ATOM     12  C   UNL     1      10.327  -2.195   3.445  0.00  0.00    +0.000 C 
ATOM     13  F   UNL     1      10.608  -0.864   3.386  0.00  0.00    +0.000 F 
ATOM     14  F   UNL     1      11.453  -2.843   3.039  0.00  0.00    +0.000 F 
BRANCH  12  15
ATOM     15  C   UNL     1       9.171  -2.515   2.492  0.00  0.00    +0.000 C 
BRANCH  15  16
ATOM     16  O   UNL     1       9.551  -2.170   1.155  0.00  0.00    +0.000 OA
BRANCH  16  17
ATOM     17  C   UNL     1       8.606  -2.432   0.205  0.00  0.00    +0.000 A 
ATOM     18  C   UNL     1       9.074  -3.010  -0.974  0.00  0.00    +0.000 A 
ATOM     19  C   UNL     1       8.211  -3.203  -2.052  0.00  0.00    +0.000 A 
ATOM     20  C   UNL     1       6.863  -2.871  -1.930  0.00  0.00    +0.000 A 
ATOM     21  C   UNL     1       6.394  -2.290  -0.753  0.00  0.00    +0.000 A 
ATOM     22  C   UNL     1       7.268  -2.053   0.311  0.00  0.00    +0.000 A 
ENDBRANCH  16  17
ENDBRANCH  15  16
ENDBRANCH  12  15
ENDBRANCH  11  12
ENDBRANCH   5  10
BRANCH   1  23
ATOM     23  C   UNL     1       8.543  -2.559   8.932  0.00  0.00    +0.000 C 
BRANCH  23  25
ATOM     24  C   UNL     1       6.502  -2.188  10.296  0.00  0.00    +0.000 C 
ATOM     25  C   UNL     1       7.292  -1.808   9.284  0.00  0.00    +0.000 C 
BRANCH  24  26
ATOM     26  C   UNL     1       6.785  -3.424  11.101  0.00  0.00    +0.000 C 
BRANCH  26  27
ATOM     27  C   UNL     1       5.711  -3.665  12.140  0.00  0.00    +0.000 C 
BRANCH  27  28
ATOM     28  C   UNL     1       5.973  -4.938  12.949  0.00  0.00    +0.000 C 
BRANCH  28  29
ATOM     29  C   UNL     1       4.845  -5.127  13.932  0.00  0.00    +0.000 C 
ATOM     30  O   UNL     1       3.854  -4.398  13.967  0.00  0.00    +0.000 OA
BRANCH  29  31
ATOM     31  O   UNL     1       5.052  -6.190  14.760  0.00  0.00    +0.000 OA
BRANCH  31  33
ATOM     32  C   UNL     1       4.296  -7.718  16.487  0.00  0.00    +0.000 C 
ATOM     33  C   UNL     1       4.004  -6.421  15.732  0.00  0.00    +0.000 C 
ATOM     34  C   UNL     1       3.932  -5.278  16.745  0.00  0.00    +0.000 C 
ENDBRANCH  31  33
ENDBRANCH  29  31
ENDBRANCH  28  29
ENDBRANCH  27  28
ENDBRANCH  26  27
ENDBRANCH  24  26
ENDBRANCH  23  25
ENDBRANCH   1  23
TORSDOF 15
