REMARK  Name = Talazoparib
REMARK  3 active torsions:
REMARK  status: ('A' for Active; 'I' for Inactive)
REMARK    1  A    between atoms: C_1  and  N_2
REMARK    2  A    between atoms: C_6  and  C_7
REMARK    3  A    between atoms: C_8  and  C_22
REMARK                            x       y       z     vdW  Elec       q    Type
REMARK                         _______ _______ _______ _____ _____    ______ ____
ROOT
ATOM      1  C   UNL     1      -0.032  -2.585  -0.069  0.00  0.00    +0.000 C 
ATOM      2  C   UNL     1       0.794  -2.920   1.172  0.00  0.00    +0.000 C 
ATOM      3  N   UNL     1       1.496  -4.180   1.192  0.00  0.00    +0.000 N 
ATOM      4  C   UNL     1       1.449  -5.072   0.154  0.00  0.00    +0.000 A 
ATOM      5  C   UNL     1       0.789  -4.791  -1.046  0.00  0.00    +0.000 A 
ATOM      6  C   UNL     1       0.119  -3.490  -1.265  0.00  0.00    +0.000 A 
ATOM      7  N   UNL     1      -0.540  -3.224  -2.355  0.00  0.00    +0.000 NA
ATOM      8  N   UNL     1      -0.623  -4.191  -3.314  0.00  0.00    +0.000 N 
ATOM      9  C   UNL     1      -0.065  -5.443  -3.253  0.00  0.00    +0.000 A 
ATOM     10  O   UNL     1      -0.191  -6.275  -4.151  0.00  0.00    +0.000 OA
ATOM     11  C   UNL     1       0.705  -5.753  -2.046  0.00  0.00    +0.000 A 
ATOM     12  C   UNL     1       1.325  -6.994  -1.889  0.00  0.00    +0.000 A 
ATOM     13  C   UNL     1       2.021  -7.253  -0.719  0.00  0.00    +0.000 A 
ATOM     14  F   UNL     1       2.647  -8.426  -0.564  0.00  0.00    +0.000 F 
ATOM     15  C   UNL     1       2.081  -6.311   0.300  0.00  0.00    +0.000 A 
ATOM     16  H   UNL     1       1.972  -4.422   2.056  0.00  0.00    +0.000 HD
ATOM     17  H   UNL     1      -1.216  -3.982  -4.113  0.00  0.00    +0.000 HD
ENDROOT
BRANCH   2  18
ATOM     18  C   UNL     1      -0.124  -2.857   2.371  0.00  0.00    +0.000 A 
ATOM     19  C   UNL     1       0.106  -1.909   3.371  0.00  0.00    +0.000 A 
ATOM     20  C   UNL     1      -0.803  -1.787   4.414  0.00  0.00    +0.000 A 
ATOM     21  C   UNL     1      -1.939  -2.591   4.440  0.00  0.00    +0.000 A 
ATOM     22  F   UNL     1      -2.808  -2.465   5.449  0.00  0.00    +0.000 F 
ATOM     23  C   UNL     1      -2.192  -3.524   3.445  0.00  0.00    +0.000 A 
ATOM     24  C   UNL     1      -1.274  -3.672   2.420  0.00  0.00    +0.000 A 
ENDBRANCH   2  18
BRANCH   1  30
ATOM     25  C   UNL     1       2.151  -0.118  -0.102  0.00  0.00    +0.000 C 
ATOM     26  N   UNL     1       0.710  -0.087  -0.125  0.00  0.00    +0.000 N 
ATOM     27  N   UNL     1       0.106   1.112   0.010  0.00  0.00    +0.000 NA
ATOM     28  C   UNL     1      -1.182   0.784  -0.054  0.00  0.00    +0.000 A 
ATOM     29  N   UNL     1      -1.424  -0.543  -0.181  0.00  0.00    +0.000 NA
ATOM     30  C   UNL     1      -0.223  -1.098  -0.237  0.00  0.00    +0.000 A 
ENDBRANCH   1  30
TORSDOF 2
