REMARK  Name = Talbutal
REMARK  6 active torsions:
REMARK  status: ('A' for Active; 'I' for Inactive)
REMARK    1  A    between atoms: C_1  and  C_2
REMARK    2  A    between atoms: C_2  and  C_3
REMARK    3  A    between atoms: C_3  and  C_4
REMARK    4  A    between atoms: C_3  and  C_5
REMARK    5  A    between atoms: C_5  and  C_6
REMARK    6  A    between atoms: C_6  and  C_7
REMARK                            x       y       z     vdW  Elec       q    Type
REMARK                         _______ _______ _______ _____ _____    ______ ____
ROOT
ATOM      1  C   UNL     1       4.688  -0.072   1.421  0.00  0.00    +0.000 C 
ATOM      2  C   UNL     1       5.127   1.225   0.752  0.00  0.00    +0.000 C 
ATOM      3  O   UNL     1       4.895   2.338   1.225  0.00  0.00    +0.000 OA
ATOM      4  N   UNL     1       5.774   1.121  -0.446  0.00  0.00    +0.000 N 
ATOM      5  C   UNL     1       6.111  -0.025  -1.094  0.00  0.00    +0.000 C 
ATOM      6  O   UNL     1       6.740  -0.010  -2.141  0.00  0.00    +0.000 OA
ATOM      7  N   UNL     1       5.738  -1.191  -0.507  0.00  0.00    +0.000 N 
ATOM      8  C   UNL     1       5.194  -1.331   0.730  0.00  0.00    +0.000 C 
ATOM      9  O   UNL     1       5.118  -2.457   1.224  0.00  0.00    +0.000 OA
ATOM     10  H   UNL     1       6.057   1.987  -0.883  0.00  0.00    +0.000 HD
ATOM     11  H   UNL     1       6.055  -2.043  -0.948  0.00  0.00    +0.000 HD
ENDROOT
BRANCH   1  12
ATOM     12  C   UNL     1       3.120  -0.092   1.439  0.00  0.00    +0.000 C 
ATOM     13  C   UNL     1       2.549  -1.332   2.150  0.00  0.00    +0.000 C 
BRANCH  12  15
ATOM     14  C   UNL     1       1.034   0.053  -0.036  0.00  0.00    +0.000 C 
ATOM     15  C   UNL     1       2.551   0.019   0.003  0.00  0.00    +0.000 C 
ENDBRANCH  12  15
ENDBRANCH   1  12
BRANCH   1  16
ATOM     16  C   UNL     1       5.283  -0.051   2.849  0.00  0.00    +0.000 C 
BRANCH  16  17
ATOM     17  C   UNL     1       6.793  -0.035   2.841  0.00  0.00    +0.000 C 
ATOM     18  C   UNL     1       7.524  -0.049   3.958  0.00  0.00    +0.000 C 
ENDBRANCH  16  17
ENDBRANCH   1  16
TORSDOF 4
