REMARK  Name = Talc
REMARK  0 active torsions:
REMARK  status: ('A' for Active; 'I' for Inactive)
REMARK                            x       y       z     vdW  Elec       q    Type
REMARK                         _______ _______ _______ _____ _____    ______ ____
ROOT
ATOM      1  O   HOH     1       1.081   0.055   0.021  0.00  0.00    +0.000 OA
ENDROOT
TORSDOF 0
REMARK  Name = Talc
REMARK  0 active torsions:
REMARK  status: ('A' for Active; 'I' for Inactive)
REMARK                            x       y       z     vdW  Elec       q    Type
REMARK                         _______ _______ _______ _____ _____    ______ ____
ROOT
ATOM      1  O   HOH     1       1.018  -0.050   0.084  0.00  0.00    +0.000 OA
ENDROOT
TORSDOF 0
REMARK  Name = Talc
REMARK  0 active torsions:
REMARK  status: ('A' for Active; 'I' for Inactive)
REMARK                            x       y       z     vdW  Elec       q    Type
REMARK                         _______ _______ _______ _____ _____    ______ ____
ROOT
ATOM      1  O   HOH     1       0.970  -0.080   0.052  0.00  0.00    +0.000 OA
ENDROOT
TORSDOF 0
REMARK  Name = Talc
REMARK  0 active torsions:
REMARK  status: ('A' for Active; 'I' for Inactive)
REMARK                            x       y       z     vdW  Elec       q    Type
REMARK                         _______ _______ _______ _____ _____    ______ ____
ROOT
ATOM      1  O   HOH     1       1.016   0.044   0.088  0.00  0.00    +0.000 OA
ENDROOT
TORSDOF 0
REMARK  Name = Talc
REMARK  0 active torsions:
REMARK  status: ('A' for Active; 'I' for Inactive)
REMARK                            x       y       z     vdW  Elec       q    Type
REMARK                         _______ _______ _______ _____ _____    ______ ____
ROOT
ATOM      1  O   HOH     1       0.973   0.082  -0.051  0.00  0.00    +0.000 OA
ENDROOT
TORSDOF 0
REMARK  Name = Talc
REMARK  0 active torsions:
REMARK  status: ('A' for Active; 'I' for Inactive)
REMARK                            x       y       z     vdW  Elec       q    Type
REMARK                         _______ _______ _______ _____ _____    ______ ____
ROOT
ATOM      1  O   HOH     1       1.076  -0.063   0.015  0.00  0.00    +0.000 OA
ENDROOT
TORSDOF 0
REMARK  Name = Talc
REMARK  0 active torsions:
REMARK  status: ('A' for Active; 'I' for Inactive)
REMARK                            x       y       z     vdW  Elec       q    Type
REMARK                         _______ _______ _______ _____ _____    ______ ____
ROOT
ATOM      1  O   HOH     1       1.047   0.024   0.085  0.00  0.00    +0.000 OA
ENDROOT
TORSDOF 0
REMARK  Name = Talc
REMARK  0 active torsions:
REMARK  status: ('A' for Active; 'I' for Inactive)
REMARK                            x       y       z     vdW  Elec       q    Type
REMARK                         _______ _______ _______ _____ _____    ______ ____
ROOT
ATOM      1  O   HOH     1       0.905   0.027   0.013  0.00  0.00    +0.000 OA
ENDROOT
TORSDOF 0
REMARK  Name = Talc
REMARK  0 active torsions:
REMARK  status: ('A' for Active; 'I' for Inactive)
REMARK                            x       y       z     vdW  Elec       q    Type
REMARK                         _______ _______ _______ _____ _____    ______ ____
ROOT
ATOM      1  O   HOH     1       1.048  -0.052  -0.071  0.00  0.00    +0.000 OA
ENDROOT
TORSDOF 0
REMARK  Name = Talc
REMARK  0 active torsions:
REMARK  status: ('A' for Active; 'I' for Inactive)
REMARK                            x       y       z     vdW  Elec       q    Type
REMARK                         _______ _______ _______ _____ _____    ______ ____
ROOT
ATOM      1  O   HOH     1       0.968  -0.057   0.075  0.00  0.00    +0.000 OA
ENDROOT
TORSDOF 0
REMARK  Name = Talc
REMARK  0 active torsions:
REMARK  status: ('A' for Active; 'I' for Inactive)
REMARK                            x       y       z     vdW  Elec       q    Type
REMARK                         _______ _______ _______ _____ _____    ______ ____
ROOT
ATOM      1 MG   UNL     1       0.937   0.041   0.066  0.00  0.00    +0.000 Mg
ENDROOT
TORSDOF 0
REMARK  Name = Talc
REMARK  0 active torsions:
REMARK  status: ('A' for Active; 'I' for Inactive)
REMARK                            x       y       z     vdW  Elec       q    Type
REMARK                         _______ _______ _______ _____ _____    ______ ____
ROOT
ATOM      1 MG   UNL     1       0.976   0.028   0.093  0.00  0.00    +0.000 Mg
ENDROOT
TORSDOF 0
REMARK  Name = Talc
REMARK  0 active torsions:
REMARK  status: ('A' for Active; 'I' for Inactive)
REMARK                            x       y       z     vdW  Elec       q    Type
REMARK                         _______ _______ _______ _____ _____    ______ ____
ROOT
ATOM      1 MG   UNL     1       1.027  -0.094  -0.021  0.00  0.00    +0.000 Mg
ENDROOT
TORSDOF 0
REMARK  Name = Talc
REMARK  0 active torsions:
REMARK  status: ('A' for Active; 'I' for Inactive)
REMARK                            x       y       z     vdW  Elec       q    Type
REMARK                         _______ _______ _______ _____ _____    ______ ____
ROOT
ATOM      1 SI   UNL     1       0.946  -0.064   0.054  0.00  0.00    +0.000 Si
ENDROOT
TORSDOF 0
REMARK  Name = Talc
REMARK  0 active torsions:
REMARK  status: ('A' for Active; 'I' for Inactive)
REMARK                            x       y       z     vdW  Elec       q    Type
REMARK                         _______ _______ _______ _____ _____    ______ ____
ROOT
ATOM      1 SI   UNL     1       0.907  -0.026  -0.025  0.00  0.00    +0.000 Si
ENDROOT
TORSDOF 0
REMARK  Name = Talc
REMARK  0 active torsions:
REMARK  status: ('A' for Active; 'I' for Inactive)
REMARK                            x       y       z     vdW  Elec       q    Type
REMARK                         _______ _______ _______ _____ _____    ______ ____
ROOT
ATOM      1 SI   UNL     1       0.957   0.078   0.045  0.00  0.00    +0.000 Si
ENDROOT
TORSDOF 0
REMARK  Name = Talc
REMARK  0 active torsions:
REMARK  status: ('A' for Active; 'I' for Inactive)
REMARK                            x       y       z     vdW  Elec       q    Type
REMARK                         _______ _______ _______ _____ _____    ______ ____
ROOT
ATOM      1 SI   UNL     1       1.066   0.073   0.019  0.00  0.00    +0.000 Si
ENDROOT
TORSDOF 0
REMARK  Name = Talc
REMARK  0 active torsions:
REMARK  status: ('A' for Active; 'I' for Inactive)
REMARK                            x       y       z     vdW  Elec       q    Type
REMARK                         _______ _______ _______ _____ _____    ______ ____
ROOT
ATOM      1  O   HOH     1       0.994  -0.018  -0.098  0.00  0.00    +0.000 OA
ATOM      2  H   HOH     0       1.994  -0.018  -0.098  0.00  0.00    +0.000 HD
ENDROOT
TORSDOF 0
REMARK  Name = Talc
REMARK  0 active torsions:
REMARK  status: ('A' for Active; 'I' for Inactive)
REMARK                            x       y       z     vdW  Elec       q    Type
REMARK                         _______ _______ _______ _____ _____    ______ ____
ROOT
ATOM      1  O   HOH     1       1.097   0.010   0.021  0.00  0.00    +0.000 OA
ATOM      2  H   HOH     0       2.097   0.010   0.021  0.00  0.00    +0.000 HD
ENDROOT
TORSDOF 0
