REMARK  Name = Tamoxifen
REMARK  11 active torsions:
REMARK  status: ('A' for Active; 'I' for Inactive)
REMARK    1  A    between atoms: C_1  and  C_2
REMARK    2  A    between atoms: C_2  and  C_3
REMARK    3  A    between atoms: C_3  and  C_23
REMARK    4  A    between atoms: C_4  and  C_5
REMARK    5  A    between atoms: C_4  and  C_11
REMARK    6  A    between atoms: C_14  and  O_15
REMARK    7  A    between atoms: O_15  and  C_16
REMARK    8  A    between atoms: C_16  and  C_17
REMARK    9  A    between atoms: C_17  and  N_18
REMARK   10  A    between atoms: N_18  and  C_19
REMARK   11  A    between atoms: N_18  and  C_20
REMARK                            x       y       z     vdW  Elec       q    Type
REMARK                         _______ _______ _______ _____ _____    ______ ____
ROOT
ATOM      1  C   UNL     1       3.048  -0.833   1.121  0.00  0.00    +0.000 C 
ATOM      2  C   UNL     1       2.202  -1.456   2.021  0.00  0.00    +0.000 C 
ENDROOT
BRANCH   2   3
ATOM      3  C   UNL     1       0.720  -1.506   1.837  0.00  0.00    +0.000 A 
ATOM      4  C   UNL     1      -0.141  -1.180   2.903  0.00  0.00    +0.000 A 
ATOM      5  C   UNL     1      -1.521  -1.299   2.752  0.00  0.00    +0.000 A 
ATOM      6  C   UNL     1      -2.059  -1.570   1.500  0.00  0.00    +0.000 A 
ATOM      7  C   UNL     1      -1.214  -1.895   0.441  0.00  0.00    +0.000 A 
ATOM      8  C   UNL     1       0.157  -2.001   0.662  0.00  0.00    +0.000 A 
ENDBRANCH   2   3
BRANCH   2   9
ATOM      9  C   UNL     1       2.712  -2.137   3.255  0.00  0.00    +0.000 A 
ATOM     10  C   UNL     1       2.152  -3.374   3.627  0.00  0.00    +0.000 A 
ATOM     11  C   UNL     1       2.533  -3.996   4.809  0.00  0.00    +0.000 A 
ATOM     12  C   UNL     1       3.558  -3.459   5.576  0.00  0.00    +0.000 A 
ATOM     13  C   UNL     1       4.123  -2.230   5.214  0.00  0.00    +0.000 A 
ATOM     14  C   UNL     1       3.656  -1.550   4.099  0.00  0.00    +0.000 A 
BRANCH  12  15
ATOM     15  O   UNL     1       3.945  -4.223   6.643  0.00  0.00    +0.000 OA
BRANCH  15  16
ATOM     16  C   UNL     1       5.076  -3.708   7.341  0.00  0.00    +0.000 C 
BRANCH  16  17
ATOM     17  C   UNL     1       5.429  -4.629   8.507  0.00  0.00    +0.000 C 
BRANCH  17  18
ATOM     18  N   UNL     1       6.573  -4.130   9.297  0.00  0.00    +0.000 NA
ATOM     19  C   UNL     1       6.294  -2.818   9.887  0.00  0.00    +0.000 C 
ATOM     20  C   UNL     1       6.888  -5.084  10.361  0.00  0.00    +0.000 C 
ENDBRANCH  17  18
ENDBRANCH  16  17
ENDBRANCH  15  16
ENDBRANCH  12  15
ENDBRANCH   2   9
BRANCH   1  21
ATOM     21  C   UNL     1       4.560  -0.953   1.264  0.00  0.00    +0.000 A 
ATOM     22  C   UNL     1       5.171  -2.181   1.593  0.00  0.00    +0.000 A 
ATOM     23  C   UNL     1       6.498  -2.245   2.033  0.00  0.00    +0.000 A 
ATOM     24  C   UNL     1       7.298  -1.109   1.993  0.00  0.00    +0.000 A 
ATOM     25  C   UNL     1       6.757   0.091   1.548  0.00  0.00    +0.000 A 
ATOM     26  C   UNL     1       5.400   0.175   1.207  0.00  0.00    +0.000 A 
ENDBRANCH   1  21
BRANCH   1  28
ATOM     27  C   UNL     1       1.206   0.539  -0.275  0.00  0.00    +0.000 C 
ATOM     28  C   UNL     1       2.646   0.078  -0.062  0.00  0.00    +0.000 C 
ENDBRANCH   1  28
TORSDOF 8
