REMARK  Name = Tamsulosin
REMARK  15 active torsions:
REMARK  status: ('A' for Active; 'I' for Inactive)
REMARK    1  A    between atoms: C_1  and  C_2
REMARK    2  A    between atoms: C_2  and  O_3
REMARK    3  A    between atoms: O_3  and  C_4
REMARK    4  A    between atoms: C_9  and  O_10
REMARK    5  A    between atoms: O_10  and  C_11
REMARK    6  A    between atoms: C_11  and  C_12
REMARK    7  A    between atoms: C_12  and  N_13
REMARK    8  A    between atoms: N_13  and  C_14
REMARK    9  A    between atoms: C_14  and  C_15
REMARK   10  A    between atoms: C_14  and  C_16
REMARK   11  A    between atoms: C_16  and  C_17
REMARK   12  A    between atoms: C_19  and  S_25
REMARK   13  A    between atoms: C_20  and  O_21
REMARK   14  A    between atoms: O_21  and  C_22
REMARK   15  A    between atoms: S_25  and  N_26
REMARK                            x       y       z     vdW  Elec       q    Type
REMARK                         _______ _______ _______ _____ _____    ______ ____
ROOT
ATOM      1  C   UNL     1       1.156  -4.425   0.793  0.00  0.00    +0.000 C 
ATOM      2  C   UNL     1       1.487  -2.980   0.409  0.00  0.00    +0.000 C 
ENDROOT
BRANCH   1   3
ATOM      3  N   UNL     1       2.073  -4.921   1.841  0.00  0.00    +0.000 NA
ATOM      4  H   UNL     1       2.934  -4.370   1.852  0.00  0.00    +0.000 HD
BRANCH   3   5
ATOM      5  C   UNL     1       2.397  -6.357   1.594  0.00  0.00    +0.000 C 
BRANCH   5   6
ATOM      6  C   UNL     1       3.146  -6.986   2.735  0.00  0.00    +0.000 C 
BRANCH   6   7
ATOM      7  O   UNL     1       3.572  -8.308   2.752  0.00  0.00    +0.000 OA
BRANCH   7  13
ATOM      8  C   UNL     1       4.559  -7.780   5.078  0.00  0.00    +0.000 A 
ATOM      9  C   UNL     1       5.248  -8.410   6.138  0.00  0.00    +0.000 A 
ATOM     10  C   UNL     1       5.559  -9.780   6.110  0.00  0.00    +0.000 A 
ATOM     11  C   UNL     1       5.109 -10.576   5.067  0.00  0.00    +0.000 A 
ATOM     12  C   UNL     1       4.403  -9.992   4.023  0.00  0.00    +0.000 A 
ATOM     13  C   UNL     1       4.151  -8.608   3.985  0.00  0.00    +0.000 A 
BRANCH   8  14
ATOM     14  O   UNL     1       4.614  -6.387   5.169  0.00  0.00    +0.000 OA
BRANCH  14  16
ATOM     15  C   UNL     1       3.505  -4.123   5.032  0.00  0.00    +0.000 C 
ATOM     16  C   UNL     1       3.406  -5.626   5.164  0.00  0.00    +0.000 C 
ENDBRANCH  14  16
ENDBRANCH   8  14
ENDBRANCH   7  13
ENDBRANCH   6   7
ENDBRANCH   5   6
ENDBRANCH   3   5
ENDBRANCH   1   3
BRANCH   1  17
ATOM     17  C   UNL     1      -0.344  -4.534   1.210  0.00  0.00    +0.000 C 
BRANCH  17  18
ATOM     18  C   UNL     1      -0.738  -5.948   1.596  0.00  0.00    +0.000 A 
ATOM     19  C   UNL     1      -0.935  -6.312   2.941  0.00  0.00    +0.000 A 
ATOM     20  C   UNL     1      -0.910  -7.673   3.312  0.00  0.00    +0.000 A 
ATOM     21  C   UNL     1      -0.816  -8.672   2.335  0.00  0.00    +0.000 A 
ATOM     22  C   UNL     1      -0.648  -8.299   0.998  0.00  0.00    +0.000 A 
ATOM     23  C   UNL     1      -0.636  -6.955   0.624  0.00  0.00    +0.000 A 
BRANCH  20  24
ATOM     24  S   UNL     1      -0.861  -8.096   5.046  0.00  0.00    +0.000 S 
ATOM     25  O   UNL     1      -1.978  -7.427   5.693  0.00  0.00    +0.000 OA
ATOM     26  O   UNL     1      -0.557  -9.481   5.261  0.00  0.00    +0.000 OA
BRANCH  24  27
ATOM     27  N   UNL     1       0.515  -7.299   5.549  0.00  0.00    +0.000 NA
ATOM     28  H   UNL     1       0.464  -6.294   5.647  0.00  0.00    +0.000 HD
ATOM     29  H   UNL     1       1.383  -7.790   5.347  0.00  0.00    +0.000 HD
ENDBRANCH  24  27
ENDBRANCH  20  24
BRANCH  21  30
ATOM     30  O   UNL     1      -0.906  -9.969   2.740  0.00  0.00    +0.000 OA
ATOM     31  C   UNL     1      -0.899 -10.981   1.748  0.00  0.00    +0.000 C 
ENDBRANCH  21  30
ENDBRANCH  17  18
ENDBRANCH   1  17
TORSDOF 12
