REMARK  Name = Tapentadol
REMARK  10 active torsions:
REMARK  status: ('A' for Active; 'I' for Inactive)
REMARK    1  A    between atoms: C_1  and  C_2
REMARK    2  A    between atoms: C_2  and  C_3
REMARK    3  A    between atoms: C_3  and  C_4
REMARK    4  A    between atoms: C_3  and  C_10
REMARK    5  A    between atoms: C_4  and  C_5
REMARK    6  A    between atoms: C_4  and  C_6
REMARK    7  A    between atoms: C_6  and  N_7
REMARK    8  A    between atoms: N_7  and  C_8
REMARK    9  A    between atoms: N_7  and  C_9
REMARK   10  A    between atoms: C_12  and  O_13
REMARK                            x       y       z     vdW  Elec       q    Type
REMARK                         _______ _______ _______ _____ _____    ______ ____
ROOT
ATOM      1  C   UNL     1       3.145   1.140   1.014  0.00  0.00    +0.000 C 
ENDROOT
BRANCH   1   2
ATOM      2  C   UNL     1       4.692   1.292   0.996  0.00  0.00    +0.000 A 
ATOM      3  C   UNL     1       5.563   0.215   1.161  0.00  0.00    +0.000 A 
ATOM      4  C   UNL     1       6.936   0.230   1.032  0.00  0.00    +0.000 A 
ATOM      5  C   UNL     1       7.556   1.453   0.939  0.00  0.00    +0.000 A 
ATOM      6  C   UNL     1       6.749   2.593   0.921  0.00  0.00    +0.000 A 
ATOM      7  C   UNL     1       5.338   2.527   0.914  0.00  0.00    +0.000 A 
BRANCH   4   8
ATOM      8  O   UNL     1       7.685  -0.904   1.034  0.00  0.00    +0.000 OA
ATOM      9  H   UNL     1       7.100  -1.665   0.866  0.00  0.00    +0.000 HD
ENDBRANCH   4   8
ENDBRANCH   1   2
BRANCH   1  11
ATOM     10  C   UNL     1       1.292   1.789   2.709  0.00  0.00    +0.000 C 
ATOM     11  C   UNL     1       2.632   1.093   2.475  0.00  0.00    +0.000 C 
ENDBRANCH   1  11
BRANCH   1  12
ATOM     12  C   UNL     1       2.546  -0.021   0.083  0.00  0.00    +0.000 C 
ATOM     13  C   UNL     1       1.030  -0.281   0.218  0.00  0.00    +0.000 C 
BRANCH  12  14
ATOM     14  C   UNL     1       3.297  -1.392   0.145  0.00  0.00    +0.000 C 
BRANCH  14  15
ATOM     15  N   UNL     1       3.448  -1.950   1.506  0.00  0.00    +0.000 NA
ATOM     16  C   UNL     1       2.236  -2.455   2.120  0.00  0.00    +0.000 C 
ATOM     17  C   UNL     1       4.497  -2.955   1.663  0.00  0.00    +0.000 C 
ENDBRANCH  14  15
ENDBRANCH  12  14
ENDBRANCH   1  12
TORSDOF 6
