REMARK  Name = Tapinarof
REMARK  7 active torsions:
REMARK  status: ('A' for Active; 'I' for Inactive)
REMARK    1  A    between atoms: C_1  and  C_2
REMARK    2  A    between atoms: C_2  and  C_3
REMARK    3  A    between atoms: C_2  and  C_4
REMARK    4  A    between atoms: C_5  and  O_6
REMARK    5  A    between atoms: C_8  and  C_9
REMARK    6  A    between atoms: C_10  and  C_11
REMARK    7  A    between atoms: C_18  and  O_19
REMARK                            x       y       z     vdW  Elec       q    Type
REMARK                         _______ _______ _______ _____ _____    ______ ____
ROOT
ATOM      1  C   UNL     1       3.014   1.384   0.030  0.00  0.00    +0.000 A 
ATOM      2  C   UNL     1       4.373   1.634   0.283  0.00  0.00    +0.000 A 
ATOM      3  C   UNL     1       4.874   2.931   0.360  0.00  0.00    +0.000 A 
ATOM      4  C   UNL     1       4.037   4.038   0.210  0.00  0.00    +0.000 A 
ATOM      5  C   UNL     1       2.679   3.817  -0.011  0.00  0.00    +0.000 A 
ATOM      6  C   UNL     1       2.184   2.515  -0.110  0.00  0.00    +0.000 A 
ENDROOT
BRANCH   1   8
ATOM      7  C   UNL     1       0.994  -0.230  -0.068  0.00  0.00    +0.000 C 
ATOM      8  C   UNL     1       2.513  -0.050  -0.106  0.00  0.00    +0.000 C 
ATOM      9  C   UNL     1       3.047  -0.681  -1.400  0.00  0.00    +0.000 C 
ENDBRANCH   1   8
BRANCH   2  10
ATOM     10  O   UNL     1       5.320   0.661   0.467  0.00  0.00    +0.000 OA
ATOM     11  H   UNL     1       4.911  -0.215   0.452  0.00  0.00    +0.000 HD
ENDBRANCH   2  10
BRANCH   4  12
ATOM     12  C   UNL     1       4.518   5.421   0.278  0.00  0.00    +0.000 C 
ATOM     13  C   UNL     1       5.807   5.759   0.460  0.00  0.00    +0.000 C 
BRANCH  13  14
ATOM     14  C   UNL     1       6.270   7.137   0.575  0.00  0.00    +0.000 A 
ATOM     15  C   UNL     1       7.484   7.493  -0.021  0.00  0.00    +0.000 A 
ATOM     16  C   UNL     1       8.023   8.760   0.196  0.00  0.00    +0.000 A 
ATOM     17  C   UNL     1       7.326   9.690   0.966  0.00  0.00    +0.000 A 
ATOM     18  C   UNL     1       6.107   9.345   1.549  0.00  0.00    +0.000 A 
ATOM     19  C   UNL     1       5.588   8.066   1.367  0.00  0.00    +0.000 A 
ENDBRANCH  13  14
ENDBRANCH   4  12
BRANCH   6  20
ATOM     20  O   UNL     1       0.847   2.379  -0.364  0.00  0.00    +0.000 OA
ATOM     21  H   UNL     1       0.415   3.245  -0.423  0.00  0.00    +0.000 HD
ENDBRANCH   6  20
TORSDOF 5
