REMARK  Name = Tasimelteon
REMARK  5 active torsions:
REMARK  status: ('A' for Active; 'I' for Inactive)
REMARK    1  A    between atoms: C_1  and  C_2
REMARK    2  A    between atoms: C_2  and  C_3
REMARK    3  A    between atoms: N_5  and  C_6
REMARK    4  A    between atoms: C_6  and  C_7
REMARK    5  A    between atoms: C_9  and  C_10
REMARK                            x       y       z     vdW  Elec       q    Type
REMARK                         _______ _______ _______ _____ _____    ______ ____
ROOT
ATOM      1  C   UNL     1       6.545   2.075  -2.095  0.00  0.00    +0.000 C 
ATOM      2  C   UNL     1       7.393   2.869  -3.083  0.00  0.00    +0.000 C 
ATOM      3  C   UNL     1       7.213   1.402  -3.269  0.00  0.00    +0.000 C 
ENDROOT
BRANCH   3   4
ATOM      4  C   UNL     1       8.216   0.276  -3.149  0.00  0.00    +0.000 A 
ATOM      5  C   UNL     1       9.280   0.130  -2.237  0.00  0.00    +0.000 A 
ATOM      6  C   UNL     1      10.046  -1.068  -2.172  0.00  0.00    +0.000 A 
ATOM      7  C   UNL     1       9.784  -2.144  -3.024  0.00  0.00    +0.000 A 
ATOM      8  C   UNL     1       8.770  -1.990  -3.937  0.00  0.00    +0.000 A 
ATOM      9  C   UNL     1       8.030  -0.818  -4.009  0.00  0.00    +0.000 A 
ATOM     10  C   UNL     1       7.063  -0.951  -5.134  0.00  0.00    +0.000 C 
ATOM     11  C   UNL     1       7.102  -2.458  -5.318  0.00  0.00    +0.000 C 
ATOM     12  O   UNL     1       8.367  -2.955  -4.826  0.00  0.00    +0.000 OA
ENDBRANCH   3   4
BRANCH   1  13
ATOM     13  C   UNL     1       5.037   2.116  -2.101  0.00  0.00    +0.000 C 
BRANCH  13  16
ATOM     14  C   UNL     1       3.107   1.021  -1.038  0.00  0.00    +0.000 C 
ATOM     15  O   UNL     1       2.322   1.710  -1.695  0.00  0.00    +0.000 OA
ATOM     16  N   UNL     1       4.475   1.144  -1.175  0.00  0.00    +0.000 N 
ATOM     17  H   UNL     1       5.095   0.567  -0.622  0.00  0.00    +0.000 HD
BRANCH  14  19
ATOM     18  C   UNL     1       1.108  -0.070   0.035  0.00  0.00    +0.000 C 
ATOM     19  C   UNL     1       2.633  -0.013  -0.024  0.00  0.00    +0.000 C 
ENDBRANCH  14  19
ENDBRANCH  13  16
ENDBRANCH   1  13
TORSDOF 4
