REMARK  Name = Taurolidine
REMARK  2 active torsions:
REMARK  status: ('A' for Active; 'I' for Inactive)
REMARK    1  A    between atoms: N_6  and  C_7
REMARK    2  A    between atoms: C_7  and  N_8
REMARK                            x       y       z     vdW  Elec       q    Type
REMARK                         _______ _______ _______ _____ _____    ______ ____
ROOT
ATOM      1  C   UNL     1       4.504  -0.650  -2.634  0.00  0.00    +0.000 C 
ENDROOT
BRANCH   1   7
ATOM      2  O   UNL     1       0.879  -0.115   0.438  0.00  0.00    +0.000 OA
ATOM      3  S   UNL     1       2.308  -0.145   0.605  0.00  0.00    +0.000 S 
ATOM      4  O   UNL     1       2.961   0.225   1.841  0.00  0.00    +0.000 OA
ATOM      5  C   UNL     1       3.008  -1.637  -0.087  0.00  0.00    +0.000 C 
ATOM      6  C   UNL     1       2.608  -1.805  -1.554  0.00  0.00    +0.000 C 
ATOM      7  N   UNL     1       3.058  -0.684  -2.394  0.00  0.00    +0.000 NA
ATOM      8  C   UNL     1       2.499   0.512  -1.798  0.00  0.00    +0.000 C 
ATOM      9  N   UNL     1       2.901   0.901  -0.499  0.00  0.00    +0.000 NA
ATOM     10  H   UNL     1       2.645   1.877  -0.319  0.00  0.00    +0.000 HD
ENDBRANCH   1   7
BRANCH   1  11
ATOM     11  N   UNL     1       4.917   0.251  -3.722  0.00  0.00    +0.000 NA
ATOM     12  C   UNL     1       4.725  -0.214  -5.092  0.00  0.00    +0.000 C 
ATOM     13  C   UNL     1       3.279  -0.224  -5.522  0.00  0.00    +0.000 C 
ATOM     14  S   UNL     1       2.684   1.445  -5.548  0.00  0.00    +0.000 S 
ATOM     15  O   UNL     1       1.233   1.386  -5.380  0.00  0.00    +0.000 OA
ATOM     16  O   UNL     1       3.327   2.252  -6.529  0.00  0.00    +0.000 OA
ATOM     17  N   UNL     1       3.197   1.976  -4.079  0.00  0.00    +0.000 NA
ATOM     18  C   UNL     1       4.560   1.654  -3.602  0.00  0.00    +0.000 C 
ATOM     19  H   UNL     1       2.399   1.572  -3.606  0.00  0.00    +0.000 HD
ENDBRANCH   1  11
TORSDOF 2
