REMARK  Name = Taurocholic acid
REMARK  14 active torsions:
REMARK  status: ('A' for Active; 'I' for Inactive)
REMARK    1  A    between atoms: C_2  and  C_28
REMARK    2  A    between atoms: C_9  and  O_10
REMARK    3  A    between atoms: C_15  and  O_16
REMARK    4  A    between atoms: C_19  and  C_20
REMARK    5  A    between atoms: C_24  and  O_25
REMARK    6  A    between atoms: C_26  and  C_27
REMARK    7  A    between atoms: C_28  and  C_29
REMARK    8  A    between atoms: C_28  and  C_30
REMARK    9  A    between atoms: C_30  and  C_31
REMARK   10  A    between atoms: C_31  and  C_32
REMARK   11  A    between atoms: N_34  and  C_35
REMARK   12  A    between atoms: C_35  and  C_36
REMARK   13  A    between atoms: C_36  and  S_37
REMARK   14  A    between atoms: S_37  and  O_38
REMARK                            x       y       z     vdW  Elec       q    Type
REMARK                         _______ _______ _______ _____ _____    ______ ____
ROOT
ATOM      1  C   UNL     1       1.841   0.379  -2.509  0.00  0.00    +0.000 C 
ATOM      2  C   UNL     1       1.172   1.655  -1.881  0.00  0.00    +0.000 C 
ATOM      3  C   UNL     1      -0.349   1.449  -1.902  0.00  0.00    +0.000 C 
ATOM      4  C   UNL     1      -0.504  -0.034  -2.197  0.00  0.00    +0.000 C 
ATOM      5  C   UNL     1      -1.860  -0.529  -2.726  0.00  0.00    +0.000 C 
ATOM      6  C   UNL     1      -3.005  -0.137  -1.797  0.00  0.00    +0.000 C 
ATOM      7  C   UNL     1      -4.328  -0.762  -2.239  0.00  0.00    +0.000 C 
ATOM      8  C   UNL     1      -4.283  -2.275  -2.556  0.00  0.00    +0.000 C 
ATOM      9  C   UNL     1      -4.232  -3.105  -1.258  0.00  0.00    +0.000 C 
ATOM     10  C   UNL     1      -4.153  -4.606  -1.496  0.00  0.00    +0.000 C 
ATOM     11  C   UNL     1      -2.973  -4.950  -2.395  0.00  0.00    +0.000 C 
ATOM     12  C   UNL     1      -3.079  -4.193  -3.712  0.00  0.00    +0.000 C 
ATOM     13  C   UNL     1      -3.140  -2.644  -3.541  0.00  0.00    +0.000 C 
ATOM     14  C   UNL     1      -3.434  -2.062  -4.950  0.00  0.00    +0.000 C 
ATOM     15  C   UNL     1      -1.815  -2.072  -2.963  0.00  0.00    +0.000 C 
ATOM     16  C   UNL     1      -0.631  -2.482  -3.815  0.00  0.00    +0.000 C 
ATOM     17  C   UNL     1       0.659  -1.937  -3.256  0.00  0.00    +0.000 C 
ATOM     18  C   UNL     1       0.632  -0.347  -3.198  0.00  0.00    +0.000 C 
ATOM     19  C   UNL     1       0.323   0.391  -4.562  0.00  0.00    +0.000 C 
ENDROOT
BRANCH   6  20
ATOM     20  O   UNL     1      -2.714  -0.448  -0.440  0.00  0.00    +0.000 OA
ATOM     21  H   UNL     1      -2.410  -1.363  -0.376  0.00  0.00    +0.000 HD
ENDBRANCH   6  20
BRANCH  10  22
ATOM     22  O   UNL     1      -4.000  -5.264  -0.242  0.00  0.00    +0.000 OA
ATOM     23  H   UNL     1      -3.177  -4.952   0.172  0.00  0.00    +0.000 HD
ENDBRANCH  10  22
BRANCH  17  24
ATOM     24  O   UNL     1       1.062  -2.558  -2.043  0.00  0.00    +0.000 OA
ATOM     25  H   UNL     1       0.478  -2.317  -1.315  0.00  0.00    +0.000 HD
ENDBRANCH  17  24
BRANCH   1  26
ATOM     26  C   UNL     1       3.072   0.765  -3.417  0.00  0.00    +0.000 C 
ATOM     27  C   UNL     1       4.119   1.549  -2.612  0.00  0.00    +0.000 C 
BRANCH  26  28
ATOM     28  C   UNL     1       3.825  -0.419  -4.112  0.00  0.00    +0.000 C 
BRANCH  28  29
ATOM     29  C   UNL     1       3.007  -1.164  -5.147  0.00  0.00    +0.000 C 
BRANCH  29  30
ATOM     30  C   UNL     1       3.403  -2.573  -5.516  0.00  0.00    +0.000 C 
ATOM     31  O   UNL     1       4.530  -3.008  -5.305  0.00  0.00    +0.000 OA
ATOM     32  N   UNL     1       2.431  -3.316  -6.190  0.00  0.00    +0.000 N 
ATOM     33  H   UNL     1       1.460  -3.020  -6.218  0.00  0.00    +0.000 HD
BRANCH  32  34
ATOM     34  C   UNL     1       2.834  -4.588  -6.769  0.00  0.00    +0.000 C 
BRANCH  34  35
ATOM     35  C   UNL     1       1.761  -5.340  -7.532  0.00  0.00    +0.000 C 
BRANCH  35  36
ATOM     36  S   UNL     1       2.403  -6.860  -8.236  0.00  0.00    +0.000 S 
ATOM     37  O   UNL     1       3.144  -7.588  -7.216  0.00  0.00    +0.000 OA
ATOM     38  O   UNL     1       1.381  -7.480  -9.028  0.00  0.00    +0.000 OA
BRANCH  36  39
ATOM     39  O   UNL     1       3.499  -6.213  -9.234  0.00  0.00    +0.000 OA
ATOM     40  H   UNL     1       4.364  -6.108  -8.784  0.00  0.00    +0.000 HD
ENDBRANCH  36  39
ENDBRANCH  35  36
ENDBRANCH  34  35
ENDBRANCH  32  34
ENDBRANCH  29  30
ENDBRANCH  28  29
ENDBRANCH  26  28
ENDBRANCH   1  26
TORSDOF 11
