REMARK  Name = Taurine
REMARK  4 active torsions:
REMARK  status: ('A' for Active; 'I' for Inactive)
REMARK    1  A    between atoms: N_1  and  C_2
REMARK    2  A    between atoms: C_2  and  C_3
REMARK    3  A    between atoms: C_3  and  S_4
REMARK    4  A    between atoms: S_4  and  O_5
REMARK                            x       y       z     vdW  Elec       q    Type
REMARK                         _______ _______ _______ _____ _____    ______ ____
ROOT
ATOM      1  C   UNL     1       2.989   1.252   0.858  0.00  0.00    +0.000 C 
ENDROOT
BRANCH   1   2
ATOM      2  S   UNL     1       4.773   1.317   0.820  0.00  0.00    +0.000 S 
ATOM      3  O   UNL     1       5.230   1.137  -0.537  0.00  0.00    +0.000 OA
ATOM      4  O   UNL     1       5.221   2.416   1.648  0.00  0.00    +0.000 OA
BRANCH   2   5
ATOM      5  O   UNL     1       5.079  -0.061   1.609  0.00  0.00    +0.000 OA
ATOM      6  H   UNL     1       5.106  -0.815   0.983  0.00  0.00    +0.000 HD
ENDBRANCH   2   5
ENDBRANCH   1   2
BRANCH   1   7
ATOM      7  C   UNL     1       2.447   0.062   0.082  0.00  0.00    +0.000 C 
BRANCH   7   8
ATOM      8  N   UNL     1       0.984   0.050   0.094  0.00  0.00    +0.000 NA
ATOM      9  H   UNL     1       0.640  -0.744  -0.447  0.00  0.00    +0.000 HD
ATOM     10  H   UNL     1       0.621   0.881  -0.375  0.00  0.00    +0.000 HD
ENDBRANCH   7   8
ENDBRANCH   1   7
TORSDOF 4
