REMARK  Name = Tauroursodeoxycholic acid
REMARK  13 active torsions:
REMARK  status: ('A' for Active; 'I' for Inactive)
REMARK    1  A    between atoms: C_5  and  C_6
REMARK    2  A    between atoms: C_6  and  C_7
REMARK    3  A    between atoms: C_6  and  C_8
REMARK    4  A    between atoms: C_8  and  C_9
REMARK    5  A    between atoms: C_9  and  C_10
REMARK    6  A    between atoms: N_12  and  C_13
REMARK    7  A    between atoms: C_13  and  C_14
REMARK    8  A    between atoms: C_14  and  S_15
REMARK    9  A    between atoms: S_15  and  O_16
REMARK   10  A    between atoms: C_19  and  C_20
REMARK   11  A    between atoms: C_27  and  O_28
REMARK   12  A    between atoms: C_33  and  O_34
REMARK   13  A    between atoms: C_37  and  C_38
REMARK                            x       y       z     vdW  Elec       q    Type
REMARK                         _______ _______ _______ _____ _____    ______ ____
ROOT
ATOM      1  C   UNL     1       1.103  -2.334   5.399  0.00  0.00    +0.000 C 
ATOM      2  C   UNL     1       2.294  -2.784   6.258  0.00  0.00    +0.000 C 
ATOM      3  C   UNL     1       3.501  -1.892   5.785  0.00  0.00    +0.000 C 
ATOM      4  C   UNL     1       2.949  -1.019   4.630  0.00  0.00    +0.000 C 
ATOM      5  C   UNL     1       1.461  -0.882   5.068  0.00  0.00    +0.000 C 
ATOM      6  C   UNL     1       1.382   0.021   6.328  0.00  0.00    +0.000 C 
ATOM      7  C   UNL     1       0.484  -0.348   4.039  0.00  0.00    +0.000 C 
ATOM      8  C   UNL     1      -0.955  -0.417   4.470  0.00  0.00    +0.000 C 
ATOM      9  C   UNL     1      -1.334  -1.863   4.848  0.00  0.00    +0.000 C 
ATOM     10  C   UNL     1      -0.342  -2.542   5.862  0.00  0.00    +0.000 C 
ATOM     11  C   UNL     1      -0.721  -4.038   5.948  0.00  0.00    +0.000 C 
ATOM     12  C   UNL     1      -2.165  -4.197   6.426  0.00  0.00    +0.000 C 
ATOM     13  C   UNL     1      -3.191  -3.457   5.550  0.00  0.00    +0.000 C 
ATOM     14  C   UNL     1      -3.405  -4.232   4.234  0.00  0.00    +0.000 C 
ATOM     15  C   UNL     1      -4.400  -3.544   3.307  0.00  0.00    +0.000 C 
ATOM     16  C   UNL     1      -3.940  -2.127   2.994  0.00  0.00    +0.000 C 
ATOM     17  C   UNL     1      -3.795  -1.331   4.288  0.00  0.00    +0.000 C 
ATOM     18  C   UNL     1      -2.812  -1.962   5.320  0.00  0.00    +0.000 C 
ATOM     19  C   UNL     1      -2.972  -1.173   6.642  0.00  0.00    +0.000 C 
ENDROOT
BRANCH   4  20
ATOM     20  C   UNL     1       3.287  -1.604   3.191  0.00  0.00    +0.000 C 
ATOM     21  C   UNL     1       2.585  -0.846   2.043  0.00  0.00    +0.000 C 
BRANCH  20  22
ATOM     22  C   UNL     1       3.109  -3.135   2.964  0.00  0.00    +0.000 C 
BRANCH  22  23
ATOM     23  C   UNL     1       3.990  -4.048   3.818  0.00  0.00    +0.000 C 
BRANCH  23  24
ATOM     24  C   UNL     1       3.651  -5.506   3.772  0.00  0.00    +0.000 C 
ATOM     25  O   UNL     1       2.752  -5.975   3.086  0.00  0.00    +0.000 OA
ATOM     26  N   UNL     1       4.407  -6.254   4.666  0.00  0.00    +0.000 N 
ATOM     27  H   UNL     1       5.025  -5.789   5.325  0.00  0.00    +0.000 HD
BRANCH  26  28
ATOM     28  C   UNL     1       4.161  -7.674   4.749  0.00  0.00    +0.000 C 
BRANCH  28  29
ATOM     29  C   UNL     1       5.066  -8.403   5.715  0.00  0.00    +0.000 C 
BRANCH  29  30
ATOM     30  S   UNL     1       4.818 -10.170   5.614  0.00  0.00    +0.000 S 
ATOM     31  O   UNL     1       4.830 -10.575   4.219  0.00  0.00    +0.000 OA
ATOM     32  O   UNL     1       5.634 -10.812   6.607  0.00  0.00    +0.000 OA
BRANCH  30  33
ATOM     33  O   UNL     1       3.278 -10.220   6.106  0.00  0.00    +0.000 OA
ATOM     34  H   UNL     1       2.662 -10.107   5.351  0.00  0.00    +0.000 HD
ENDBRANCH  30  33
ENDBRANCH  29  30
ENDBRANCH  28  29
ENDBRANCH  26  28
ENDBRANCH  23  24
ENDBRANCH  22  23
ENDBRANCH  20  22
ENDBRANCH   4  20
BRANCH  11  35
ATOM     35  O   UNL     1       0.136  -4.752   6.831  0.00  0.00    +0.000 OA
ATOM     36  H   UNL     1       0.083  -4.331   7.703  0.00  0.00    +0.000 HD
ENDBRANCH  11  35
BRANCH  15  37
ATOM     37  O   UNL     1      -4.536  -4.292   2.105  0.00  0.00    +0.000 OA
ATOM     38  H   UNL     1      -3.649  -4.439   1.733  0.00  0.00    +0.000 HD
ENDBRANCH  15  37
TORSDOF 10
