REMARK  Name = Tazarotene
REMARK  8 active torsions:
REMARK  status: ('A' for Active; 'I' for Inactive)
REMARK    1  A    between atoms: C_1  and  C_2
REMARK    2  A    between atoms: C_2  and  O_3
REMARK    3  A    between atoms: O_3  and  C_4
REMARK    4  A    between atoms: C_4  and  C_6
REMARK    5  A    between atoms: C_9  and  C_12
REMARK    6  A    between atoms: C_13  and  C_14
REMARK    7  A    between atoms: C_21  and  C_22
REMARK    8  A    between atoms: C_21  and  C_23
REMARK                            x       y       z     vdW  Elec       q    Type
REMARK                         _______ _______ _______ _____ _____    ______ ____
ROOT
ATOM      1  C   UNL     1       6.331  -4.422   5.347  0.00  0.00    +0.000 C 
ATOM      2  C   UNL     1       6.715  -5.041   6.326  0.00  0.00    +0.000 C 
ENDROOT
BRANCH   2   3
ATOM      3  C   UNL     1       7.116  -5.814   7.499  0.00  0.00    +0.000 A 
ATOM      4  C   UNL     1       7.763  -5.239   8.610  0.00  0.00    +0.000 A 
ATOM      5  C   UNL     1       8.055  -5.975   9.808  0.00  0.00    +0.000 A 
ATOM      6  C   UNL     1       7.707  -7.338   9.842  0.00  0.00    +0.000 A 
ATOM      7  S   UNL     1       7.910  -8.447  11.228  0.00  0.00    +0.000 S 
ATOM      8  C   UNL     1       9.088  -7.510  12.207  0.00  0.00    +0.000 C 
ATOM      9  C   UNL     1       8.597  -6.077  12.335  0.00  0.00    +0.000 C 
ATOM     10  C   UNL     1       8.727  -5.277  11.007  0.00  0.00    +0.000 C 
ATOM     11  C   UNL     1       8.078  -3.894  11.251  0.00  0.00    +0.000 C 
ATOM     12  C   UNL     1      10.227  -5.067  10.704  0.00  0.00    +0.000 C 
ATOM     13  C   UNL     1       7.111  -7.921   8.720  0.00  0.00    +0.000 A 
ATOM     14  C   UNL     1       6.823  -7.175   7.569  0.00  0.00    +0.000 A 
ENDBRANCH   2   3
BRANCH   1  18
ATOM     15  C   UNL     1       4.829  -1.958   2.194  0.00  0.00    +0.000 A 
ATOM     16  C   UNL     1       4.306  -3.204   2.515  0.00  0.00    +0.000 A 
ATOM     17  N   UNL     1       4.778  -4.022   3.531  0.00  0.00    +0.000 NA
ATOM     18  C   UNL     1       5.884  -3.619   4.213  0.00  0.00    +0.000 A 
ATOM     19  C   UNL     1       6.544  -2.447   3.865  0.00  0.00    +0.000 A 
ATOM     20  C   UNL     1       5.985  -1.595   2.891  0.00  0.00    +0.000 A 
BRANCH  15  21
ATOM     21  C   UNL     1       4.341  -1.057   1.099  0.00  0.00    +0.000 C 
ATOM     22  O   UNL     1       5.128  -0.399   0.431  0.00  0.00    +0.000 OA
BRANCH  21  23
ATOM     23  O   UNL     1       2.983  -0.981   0.986  0.00  0.00    +0.000 OA
BRANCH  23  25
ATOM     24  C   UNL     1       0.996   0.001  -0.052  0.00  0.00    +0.000 C 
ATOM     25  C   UNL     1       2.519  -0.040  -0.023  0.00  0.00    +0.000 C 
ENDBRANCH  23  25
ENDBRANCH  21  23
ENDBRANCH  15  21
ENDBRANCH   1  18
TORSDOF 5
