REMARK  Name = Tazemetostat
REMARK  13 active torsions:
REMARK  status: ('A' for Active; 'I' for Inactive)
REMARK    1  A    between atoms: C_1  and  C_2
REMARK    2  A    between atoms: C_2  and  N_3
REMARK    3  A    between atoms: N_3  and  C_4
REMARK    4  A    between atoms: N_3  and  C_10
REMARK    5  A    between atoms: C_11  and  C_12
REMARK    6  A    between atoms: C_13  and  C_30
REMARK    7  A    between atoms: C_15  and  C_17
REMARK    8  A    between atoms: C_20  and  C_21
REMARK    9  A    between atoms: C_21  and  N_22
REMARK   10  A    between atoms: N_32  and  C_33
REMARK   11  A    between atoms: C_33  and  C_34
REMARK   12  A    between atoms: C_35  and  C_36
REMARK   13  A    between atoms: C_38  and  C_39
REMARK                            x       y       z     vdW  Elec       q    Type
REMARK                         _______ _______ _______ _____ _____    ______ ____
ROOT
ATOM      1  C   UNL     1       4.349   1.078  -0.995  0.00  0.00    +0.000 A 
ATOM      2  C   UNL     1       5.186  -0.021  -1.217  0.00  0.00    +0.000 A 
ATOM      3  C   UNL     1       4.547  -1.343  -1.300  0.00  0.00    +0.000 C 
ATOM      4  C   UNL     1       6.608   0.092  -1.392  0.00  0.00    +0.000 A 
ATOM      5  C   UNL     1       7.170   1.351  -1.504  0.00  0.00    +0.000 A 
ATOM      6  C   UNL     1       6.358   2.452  -1.414  0.00  0.00    +0.000 A 
ATOM      7  C   UNL     1       5.018   2.294  -1.010  0.00  0.00    +0.000 A 
ENDROOT
BRANCH   6   8
ATOM      8  C   UNL     1       6.917   3.764  -1.608  0.00  0.00    +0.000 A 
ATOM      9  C   UNL     1       6.757   4.604  -0.585  0.00  0.00    +0.000 A 
ATOM     10  C   UNL     1       7.307   5.817  -0.846  0.00  0.00    +0.000 A 
ATOM     11  C   UNL     1       7.992   6.460  -1.818  0.00  0.00    +0.000 A 
ATOM     12  C   UNL     1       8.160   5.598  -2.856  0.00  0.00    +0.000 A 
ATOM     13  C   UNL     1       7.623   4.255  -2.750  0.00  0.00    +0.000 A 
BRANCH  11  14
ATOM     14  C   UNL     1       8.388   7.918  -1.505  0.00  0.00    +0.000 C 
BRANCH  14  15
ATOM     15  N   UNL     1       8.067   8.597  -0.153  0.00  0.00    +0.000 NA
ATOM     16  C   UNL     1       8.746   8.048   1.057  0.00  0.00    +0.000 C 
ATOM     17  C   UNL     1       8.140   6.749   1.599  0.00  0.00    +0.000 C 
ATOM     18  O   UNL     1       6.626   6.840   1.690  0.00  0.00    +0.000 OA
ATOM     19  C   UNL     1       5.851   7.613   0.637  0.00  0.00    +0.000 C 
ATOM     20  C   UNL     1       6.631   8.847   0.175  0.00  0.00    +0.000 C 
ENDBRANCH  14  15
ENDBRANCH  11  14
ENDBRANCH   6   8
BRANCH   4  21
ATOM     21  C   UNL     1       7.611  -1.026  -1.527  0.00  0.00    +0.000 C 
ATOM     22  O   UNL     1       8.806  -0.781  -1.683  0.00  0.00    +0.000 OA
ATOM     23  N   UNL     1       7.159  -2.312  -1.465  0.00  0.00    +0.000 N 
ATOM     24  H   UNL     1       6.202  -2.536  -1.304  0.00  0.00    +0.000 HD
BRANCH  23  25
ATOM     25  C   UNL     1       7.962  -3.471  -1.607  0.00  0.00    +0.000 C 
BRANCH  25  26
ATOM     26  C   UNL     1       7.170  -4.759  -1.532  0.00  0.00    +0.000 A 
ATOM     27  C   UNL     1       7.799  -5.949  -1.594  0.00  0.00    +0.000 A 
ATOM     28  C   UNL     1       9.284  -6.081  -1.740  0.00  0.00    +0.000 C 
ATOM     29  C   UNL     1       7.064  -7.198  -1.522  0.00  0.00    +0.000 A 
ATOM     30  C   UNL     1       5.731  -7.216  -1.387  0.00  0.00    +0.000 A 
ATOM     31  C   UNL     1       4.924  -8.464  -1.302  0.00  0.00    +0.000 C 
ATOM     32  N   UNL     1       5.066  -6.034  -1.321  0.00  0.00    +0.000 N 
ATOM     33  C   UNL     1       5.670  -4.807  -1.385  0.00  0.00    +0.000 A 
ATOM     34  O   UNL     1       4.968  -3.840  -1.310  0.00  0.00    +0.000 OA
ATOM     35  H   UNL     1       4.058  -5.994  -1.219  0.00  0.00    +0.000 HD
ENDBRANCH  25  26
ENDBRANCH  23  25
ENDBRANCH   4  21
BRANCH   1  36
ATOM     36  N   UNL     1       2.956   0.992  -0.835  0.00  0.00    +0.000 N 
BRANCH  36  37
ATOM     37  C   UNL     1       2.049   1.792  -1.713  0.00  0.00    +0.000 C 
ATOM     38  C   UNL     1       1.948   1.216  -3.126  0.00  0.00    +0.000 C 
ATOM     39  C   UNL     1       1.103   2.145  -4.000  0.00  0.00    +0.000 C 
ATOM     40  O   UNL     1       1.563   3.496  -3.973  0.00  0.00    +0.000 OA
ATOM     41  C   UNL     1       1.510   4.063  -2.667  0.00  0.00    +0.000 C 
ATOM     42  C   UNL     1       2.400   3.269  -1.757  0.00  0.00    +0.000 C 
ENDBRANCH  36  37
BRANCH  36  44
ATOM     43  C   UNL     1       0.869  -0.053   0.147  0.00  0.00    +0.000 C 
ATOM     44  C   UNL     1       2.384   0.060   0.173  0.00  0.00    +0.000 C 
ENDBRANCH  36  44
ENDBRANCH   1  36
TORSDOF 9
