REMARK  Name = Tazobactam
REMARK  5 active torsions:
REMARK  status: ('A' for Active; 'I' for Inactive)
REMARK    1  A    between atoms: C_7  and  C_8
REMARK    2  A    between atoms: C_8  and  O_9
REMARK    3  A    between atoms: C_11  and  C_12
REMARK    4  A    between atoms: C_11  and  C_13
REMARK    5  A    between atoms: C_13  and  N_14
REMARK                            x       y       z     vdW  Elec       q    Type
REMARK                         _______ _______ _______ _____ _____    ______ ____
ROOT
ATOM      1  C   UNL     1       2.032   0.118   0.020  0.00  0.00    +0.000 C 
ATOM      2  C   UNL     1       2.705  -0.937   0.922  0.00  0.00    +0.000 C 
ATOM      3  C   UNL     1       3.561  -1.260  -0.317  0.00  0.00    +0.000 C 
ATOM      4  O   UNL     1       4.564  -1.890  -0.528  0.00  0.00    +0.000 OA
ATOM      5  N   UNL     1       2.977  -0.260  -1.043  0.00  0.00    +0.000 N 
ATOM      6  C   UNL     1       3.755   0.826  -1.697  0.00  0.00    +0.000 C 
ATOM      7  C   UNL     1       4.134   1.836  -0.558  0.00  0.00    +0.000 C 
ATOM      8  C   UNL     1       4.683   3.193  -1.065  0.00  0.00    +0.000 C 
ATOM      9  S   UNL     1       2.455   1.856   0.252  0.00  0.00    +0.000 S 
ATOM     10  O   UNL     1       2.400   2.034   1.678  0.00  0.00    +0.000 OA
ATOM     11  O   UNL     1       1.634   2.710  -0.588  0.00  0.00    +0.000 OA
ENDROOT
BRANCH   6  12
ATOM     12  C   UNL     1       2.828   1.275  -2.874  0.00  0.00    +0.000 C 
ATOM     13  O   UNL     1       2.211   0.464  -3.557  0.00  0.00    +0.000 OA
BRANCH  12  14
ATOM     14  O   UNL     1       2.753   2.574  -3.202  0.00  0.00    +0.000 OA
ATOM     15  H   UNL     1       2.729   3.245  -2.498  0.00  0.00    +0.000 HD
ENDBRANCH  12  14
ENDBRANCH   6  12
BRANCH   7  16
ATOM     16  C   UNL     1       5.280   1.307   0.357  0.00  0.00    +0.000 C 
BRANCH  16  17
ATOM     17  N   UNL     1       5.712   2.235   1.400  0.00  0.00    +0.000 N 
ATOM     18  C   UNL     1       4.980   2.797   2.386  0.00  0.00    +0.000 A 
ATOM     19  C   UNL     1       5.811   3.667   3.021  0.00  0.00    +0.000 A 
ATOM     20  N   UNL     1       7.024   3.624   2.417  0.00  0.00    +0.000 NA
ATOM     21  N   UNL     1       6.956   2.753   1.408  0.00  0.00    +0.000 NA
ENDBRANCH  16  17
ENDBRANCH   7  16
TORSDOF 4
