REMARK  Name = Technetium Tc-99m etidronate
REMARK  8 active torsions:
REMARK  status: ('A' for Active; 'I' for Inactive)
REMARK    1  A    between atoms: C_2  and  C_3
REMARK    2  A    between atoms: C_3  and  O_4
REMARK    3  A    between atoms: C_3  and  P_5
REMARK    4  A    between atoms: C_3  and  P_9
REMARK    5  A    between atoms: P_5  and  O_6
REMARK    6  A    between atoms: P_5  and  O_7
REMARK    7  A    between atoms: P_9  and  O_10
REMARK    8  A    between atoms: P_9  and  O_11
REMARK                            x       y       z     vdW  Elec       q    Type
REMARK                         _______ _______ _______ _____ _____    ______ ____
ROOT
ATOM      1 TC   UNL     1       0.920  -0.017   0.057  0.00  0.00    +0.000 Tc
ENDROOT
TORSDOF 0
REMARK  Name = Technetium Tc-99m etidronate
REMARK  8 active torsions:
REMARK  status: ('A' for Active; 'I' for Inactive)
REMARK    1  A    between atoms: C_2  and  C_3
REMARK    2  A    between atoms: C_3  and  O_4
REMARK    3  A    between atoms: C_3  and  P_5
REMARK    4  A    between atoms: C_3  and  P_9
REMARK    5  A    between atoms: P_5  and  O_6
REMARK    6  A    between atoms: P_5  and  O_7
REMARK    7  A    between atoms: P_9  and  O_10
REMARK    8  A    between atoms: P_9  and  O_11
REMARK                            x       y       z     vdW  Elec       q    Type
REMARK                         _______ _______ _______ _____ _____    ______ ____
ROOT
ATOM      1  C   UNL     2       1.091   0.007   0.042  0.00  0.00    +0.000 C 
ATOM      2  C   UNL     2       2.611   0.007   0.042  0.00  0.00    +0.000 C 
ENDROOT
BRANCH   2   3
ATOM      3  O   UNL     2       3.084  -0.930  -0.915  0.00  0.00    +0.000 OA
ATOM      4  H   UNL     2       2.761  -0.683  -1.796  0.00  0.00    +0.000 HD
ENDBRANCH   2   3
BRANCH   2   5
ATOM      5  P   UNL     2       3.221   1.678  -0.386  0.00  0.00    +0.000 P 
ATOM      6  O   UNL     2       3.737   3.092  -0.749  0.00  0.00    +0.000 OA
BRANCH   5   7
ATOM      7  O   UNL     2       4.468   1.527   0.803  0.00  0.00    +0.000 OA
ATOM      8  H   UNL     2       4.396   0.664   1.239  0.00  0.00    +0.000 HD
ENDBRANCH   5   7
BRANCH   5   9
ATOM      9  O   UNL     2       3.507   1.157  -2.011  0.00  0.00    +0.000 OA
ATOM     10  H   UNL     2       3.255   0.225  -2.101  0.00  0.00    +0.000 HD
ENDBRANCH   5   9
ENDBRANCH   2   5
BRANCH   2  11
ATOM     11  P   UNL     2       3.221  -0.458   1.703  0.00  0.00    +0.000 P 
ATOM     12  O   UNL     2       3.737  -0.851   3.109  0.00  0.00    +0.000 OA
BRANCH  11  13
ATOM     13  O   UNL     2       4.088  -1.787   1.014  0.00  0.00    +0.000 OA
ATOM     14  H   UNL     2       3.945  -1.803   0.054  0.00  0.00    +0.000 HD
ENDBRANCH  11  13
BRANCH  11  15
ATOM     15  O   UNL     2       3.983   1.087   1.856  0.00  0.00    +0.000 OA
ATOM     16  H   UNL     2       3.821   1.608   1.054  0.00  0.00    +0.000 HD
ENDBRANCH  11  15
ENDBRANCH   2  11
TORSDOF 7
