REMARK  Name = Technetium Tc-99m mebrofenin
REMARK  12 active torsions:
REMARK  status: ('A' for Active; 'I' for Inactive)
REMARK    1  A    between atoms: C_2  and  C_3
REMARK    2  A    between atoms: C_5  and  C_6
REMARK    3  A    between atoms: C_9  and  C_10
REMARK    4  A    between atoms: C_11  and  N_12
REMARK    5  A    between atoms: C_13  and  C_15
REMARK    6  A    between atoms: C_15  and  N_16
REMARK    7  A    between atoms: N_16  and  C_17
REMARK    8  A    between atoms: N_16  and  C_21
REMARK    9  A    between atoms: C_17  and  C_18
REMARK   10  A    between atoms: C_18  and  O_19
REMARK   11  A    between atoms: C_21  and  C_22
REMARK   12  A    between atoms: C_22  and  O_23
REMARK                            x       y       z     vdW  Elec       q    Type
REMARK                         _______ _______ _______ _____ _____    ______ ____
ROOT
ATOM      1 TC   UNL     1       0.995   0.099   0.009  0.00  0.00    +0.000 Tc
ENDROOT
TORSDOF 0
REMARK  Name = Technetium Tc-99m mebrofenin
REMARK  12 active torsions:
REMARK  status: ('A' for Active; 'I' for Inactive)
REMARK    1  A    between atoms: C_2  and  C_3
REMARK    2  A    between atoms: C_5  and  C_6
REMARK    3  A    between atoms: C_9  and  C_10
REMARK    4  A    between atoms: C_11  and  N_12
REMARK    5  A    between atoms: C_13  and  C_15
REMARK    6  A    between atoms: C_15  and  N_16
REMARK    7  A    between atoms: N_16  and  C_17
REMARK    8  A    between atoms: N_16  and  C_21
REMARK    9  A    between atoms: C_17  and  C_18
REMARK   10  A    between atoms: C_18  and  O_19
REMARK   11  A    between atoms: C_21  and  C_22
REMARK   12  A    between atoms: C_22  and  O_23
REMARK                            x       y       z     vdW  Elec       q    Type
REMARK                         _______ _______ _______ _____ _____    ______ ____
ROOT
ATOM      1  N   UNL     2       2.563  -2.491  -0.095  0.00  0.00    +0.000 N 
ATOM      2  C   UNL     2       1.094  -2.520  -0.101  0.00  0.00    +0.000 C 
ATOM      3  O   UNL     2       0.437  -1.432  -0.100  0.00  0.00    +0.000 OA
ATOM      4  H   UNL     2       3.072  -3.333  -0.096  0.00  0.00    +0.000 HD
ENDROOT
BRANCH   1  14
ATOM      5  C   UNL     2       1.051  -0.006  -0.086  0.00  0.00    +0.000 C 
ATOM      6  C   UNL     2       2.571  -0.006  -0.086  0.00  0.00    +0.000 A 
ATOM      7  C   UNL     2       3.269   1.184  -0.084  0.00  0.00    +0.000 A 
ATOM      8  C   UNL     2       4.593   1.192  -0.085  0.00  0.00    +0.000 A 
ATOM      9  C   UNL     2       5.327   2.523  -0.090  0.00  0.00    +0.000 C 
ATOM     10  C   UNL     2       5.293   0.070  -0.080  0.00  0.00    +0.000 A 
ATOM     11 BR   UNL     2       7.251   0.149  -0.071  0.00  0.00    +0.000 Br
ATOM     12  C   UNL     2       4.659  -1.158  -0.081  0.00  0.00    +0.000 A 
ATOM     13  C   UNL     2       5.471  -2.443  -0.076  0.00  0.00    +0.000 C 
ATOM     14  C   UNL     2       3.273  -1.203  -0.087  0.00  0.00    +0.000 A 
ENDBRANCH   1  14
BRANCH   2  15
ATOM     15  C   UNL     2       0.360  -3.851  -0.109  0.00  0.00    +0.000 C 
BRANCH  15  16
ATOM     16  N   UNL     2      -1.090  -3.611  -0.114  0.00  0.00    +0.000 NA
BRANCH  16  17
ATOM     17  C   UNL     2      -1.456  -2.843  -1.313  0.00  0.00    +0.000 C 
BRANCH  17  18
ATOM     18  C   UNL     2      -0.722  -1.511  -1.305  0.00  0.00    +0.000 C 
ATOM     19  O   UNL     2      -0.893  -0.686  -2.256  0.00  0.00    +0.000 OA
BRANCH  18  20
ATOM     20  O   UNL     2       0.155  -1.190  -0.236  0.00  0.00    +0.000 OA
ATOM     21  H   UNL     2       0.281  -1.799   0.465  0.00  0.00    +0.000 HD
ENDBRANCH  18  20
ENDBRANCH  17  18
ENDBRANCH  16  17
BRANCH  16  22
ATOM     22  C   UNL     2      -1.800  -4.898  -0.122  0.00  0.00    +0.000 C 
BRANCH  22  23
ATOM     23  C   UNL     2      -3.300  -4.650  -0.128  0.00  0.00    +0.000 C 
ATOM     24  O   UNL     2      -4.106  -5.632  -0.135  0.00  0.00    +0.000 OA
BRANCH  23  25
ATOM     25  O   UNL     2      -3.799  -3.321  -0.125  0.00  0.00    +0.000 OA
ATOM     26  H   UNL     2      -3.205  -2.597  -0.120  0.00  0.00    +0.000 HD
ENDBRANCH  23  25
ENDBRANCH  22  23
ENDBRANCH  16  22
ENDBRANCH  15  16
ENDBRANCH   2  15
TORSDOF 9
