REMARK  Name = Technetium Tc-99m succimer
REMARK  7 active torsions:
REMARK  status: ('A' for Active; 'I' for Inactive)
REMARK    1  A    between atoms: O_2  and  C_3
REMARK    2  A    between atoms: C_3  and  C_5
REMARK    3  A    between atoms: C_5  and  S_6
REMARK    4  A    between atoms: C_5  and  C_7
REMARK    5  A    between atoms: C_7  and  S_8
REMARK    6  A    between atoms: C_7  and  C_9
REMARK    7  A    between atoms: C_9  and  O_10
REMARK                            x       y       z     vdW  Elec       q    Type
REMARK                         _______ _______ _______ _____ _____    ______ ____
ROOT
ATOM      1 TC   UNL     1       0.932  -0.073   0.004  0.00  0.00    +0.000 Tc
ENDROOT
TORSDOF 0
REMARK  Name = Technetium Tc-99m succimer
REMARK  7 active torsions:
REMARK  status: ('A' for Active; 'I' for Inactive)
REMARK    1  A    between atoms: O_2  and  C_3
REMARK    2  A    between atoms: C_3  and  C_5
REMARK    3  A    between atoms: C_5  and  S_6
REMARK    4  A    between atoms: C_5  and  C_7
REMARK    5  A    between atoms: C_7  and  S_8
REMARK    6  A    between atoms: C_7  and  C_9
REMARK    7  A    between atoms: C_9  and  O_10
REMARK                            x       y       z     vdW  Elec       q    Type
REMARK                         _______ _______ _______ _____ _____    ______ ____
ROOT
ATOM      1  C   UNL     2       3.240  -0.501  -1.298  0.00  0.00    +0.000 C 
ENDROOT
BRANCH   1   2
ATOM      2  C   UNL     2       2.480  -0.004  -0.080  0.00  0.00    +0.000 C 
ATOM      3  O   UNL     2       3.116   0.412   0.939  0.00  0.00    +0.000 OA
BRANCH   2   4
ATOM      4  O   UNL     2       1.060  -0.004  -0.080  0.00  0.00    +0.000 OA
ATOM      5  H   UNL     2       0.592  -0.310  -0.831  0.00  0.00    +0.000 HD
ENDBRANCH   2   4
ENDBRANCH   1   2
BRANCH   1   6
ATOM      6  S   UNL     2       2.803   0.509  -2.735  0.00  0.00    +0.000 S 
ATOM      7  H   UNL     2       3.132   1.806  -2.495  0.00  0.00    +0.000 HD
ENDBRANCH   1   6
BRANCH   1   8
ATOM      8  C   UNL     2       4.735  -0.396  -1.041  0.00  0.00    +0.000 C 
BRANCH   8   9
ATOM      9  S   UNL     2       5.172  -1.406   0.396  0.00  0.00    +0.000 S 
ATOM     10  H   UNL     2       4.843  -2.704   0.155  0.00  0.00    +0.000 HD
ENDBRANCH   8   9
BRANCH   8  11
ATOM     11  C   UNL     2       5.495  -0.893  -2.260  0.00  0.00    +0.000 C 
ATOM     12  O   UNL     2       6.766  -0.893  -2.260  0.00  0.00    +0.000 OA
BRANCH  11  13
ATOM     13  O   UNL     2       4.785  -1.358  -3.399  0.00  0.00    +0.000 OA
ATOM     14  H   UNL     2       3.848  -1.358  -3.399  0.00  0.00    +0.000 HD
ENDBRANCH  11  13
ENDBRANCH   8  11
ENDBRANCH   1   8
TORSDOF 7
