REMARK  Name = Technetium Tc-99m pertechnetate
REMARK  0 active torsions:
REMARK  status: ('A' for Active; 'I' for Inactive)
REMARK                            x       y       z     vdW  Elec       q    Type
REMARK                         _______ _______ _______ _____ _____    ______ ____
ROOT
ATOM      1  O   HOH     1       0.992  -0.063  -0.077  0.00  0.00    +0.000 OA
ATOM      2  H   HOH     0       1.962  -0.063  -0.077  0.00  0.00    +0.000 HD
ATOM      3  H   HOH     0       0.668   0.692   0.439  0.00  0.00    +0.000 HD
ENDROOT
TORSDOF 0
REMARK  Name = Technetium Tc-99m pertechnetate
REMARK  0 active torsions:
REMARK  status: ('A' for Active; 'I' for Inactive)
REMARK                            x       y       z     vdW  Elec       q    Type
REMARK                         _______ _______ _______ _____ _____    ______ ____
ROOT
ATOM      1  O   HOH     1       0.921  -0.047  -0.039  0.00  0.00    +0.000 OA
ATOM      2  H   HOH     0       1.891  -0.047  -0.039  0.00  0.00    +0.000 HD
ATOM      3  H   HOH     0       0.598  -0.883   0.332  0.00  0.00    +0.000 HD
ENDROOT
TORSDOF 0
REMARK  Name = Technetium Tc-99m pertechnetate
REMARK  0 active torsions:
REMARK  status: ('A' for Active; 'I' for Inactive)
REMARK                            x       y       z     vdW  Elec       q    Type
REMARK                         _______ _______ _______ _____ _____    ______ ____
ROOT
ATOM      1  O   HOH     1       1.087   0.039  -0.030  0.00  0.00    +0.000 OA
ATOM      2  H   HOH     0       2.057   0.039  -0.030  0.00  0.00    +0.000 HD
ATOM      3  H   HOH     0       0.764   0.404   0.809  0.00  0.00    +0.000 HD
ENDROOT
TORSDOF 0
REMARK  Name = Technetium Tc-99m pertechnetate
REMARK  0 active torsions:
REMARK  status: ('A' for Active; 'I' for Inactive)
REMARK                            x       y       z     vdW  Elec       q    Type
REMARK                         _______ _______ _______ _____ _____    ______ ____
ROOT
ATOM      1  O   HOH     1       0.935   0.055   0.053  0.00  0.00    +0.000 OA
ATOM      2  H   HOH     0       1.905   0.055   0.053  0.00  0.00    +0.000 HD
ATOM      3  H   HOH     0       0.612   0.710   0.692  0.00  0.00    +0.000 HD
ENDROOT
TORSDOF 0
REMARK  Name = Technetium Tc-99m pertechnetate
REMARK  0 active torsions:
REMARK  status: ('A' for Active; 'I' for Inactive)
REMARK                            x       y       z     vdW  Elec       q    Type
REMARK                         _______ _______ _______ _____ _____    ______ ____
ROOT
ATOM      1 TC   UNL     1       0.924  -0.036   0.054  0.00  0.00    +0.000 Tc
ENDROOT
TORSDOF 0
