REMARK  Name = Technetium Tc-99m oxidronate
REMARK  7 active torsions:
REMARK  status: ('A' for Active; 'I' for Inactive)
REMARK    1  A    between atoms: O_2  and  C_3
REMARK    2  A    between atoms: C_3  and  P_4
REMARK    3  A    between atoms: C_3  and  P_8
REMARK    4  A    between atoms: P_4  and  O_5
REMARK    5  A    between atoms: P_4  and  O_6
REMARK    6  A    between atoms: P_8  and  O_9
REMARK    7  A    between atoms: P_8  and  O_10
REMARK                            x       y       z     vdW  Elec       q    Type
REMARK                         _______ _______ _______ _____ _____    ______ ____
ROOT
ATOM      1 TC   UNL     1       1.045  -0.072  -0.053  0.00  0.00    +0.000 Tc
ENDROOT
TORSDOF 0
REMARK  Name = Technetium Tc-99m oxidronate
REMARK  7 active torsions:
REMARK  status: ('A' for Active; 'I' for Inactive)
REMARK    1  A    between atoms: O_2  and  C_3
REMARK    2  A    between atoms: C_3  and  P_4
REMARK    3  A    between atoms: C_3  and  P_8
REMARK    4  A    between atoms: P_4  and  O_5
REMARK    5  A    between atoms: P_4  and  O_6
REMARK    6  A    between atoms: P_8  and  O_9
REMARK    7  A    between atoms: P_8  and  O_10
REMARK                            x       y       z     vdW  Elec       q    Type
REMARK                         _______ _______ _______ _____ _____    ______ ____
ROOT
ATOM      1  C   UNL     2       2.506  -0.050   0.002  0.00  0.00    +0.000 C 
ENDROOT
BRANCH   1   2
ATOM      2  O   UNL     2       1.086  -0.050   0.002  0.00  0.00    +0.000 OA
ATOM      3  H   UNL     2       0.763   0.773   0.400  0.00  0.00    +0.000 HD
ENDBRANCH   1   2
BRANCH   1   4
ATOM      4  P   UNL     2       3.116   0.075   1.722  0.00  0.00    +0.000 P 
ATOM      5  O   UNL     2       3.632   0.182   3.178  0.00  0.00    +0.000 OA
BRANCH   4   6
ATOM      6  O   UNL     2       2.694   1.753   1.749  0.00  0.00    +0.000 OA
ATOM      7  H   UNL     2       2.310   2.003   0.895  0.00  0.00    +0.000 HD
ENDBRANCH   4   6
BRANCH   4   8
ATOM      8  O   UNL     2       1.963  -1.115   2.218  0.00  0.00    +0.000 OA
ATOM      9  H   UNL     2       1.443  -1.400   1.451  0.00  0.00    +0.000 HD
ENDBRANCH   4   8
ENDBRANCH   1   4
BRANCH   1  10
ATOM     10  P   UNL     2       3.116  -1.604  -0.750  0.00  0.00    +0.000 P 
ATOM     11  O   UNL     2       3.632  -2.918  -1.386  0.00  0.00    +0.000 OA
BRANCH  10  12
ATOM     12  O   UNL     2       2.403  -2.508   0.541  0.00  0.00    +0.000 OA
ATOM     13  H   UNL     2       1.965  -1.901   1.158  0.00  0.00    +0.000 HD
ENDBRANCH  10  12
BRANCH  10  14
ATOM     14  O   UNL     2       2.203  -1.270  -2.181  0.00  0.00    +0.000 OA
ATOM     15  H   UNL     2       1.727  -0.432  -2.072  0.00  0.00    +0.000 HD
ENDBRANCH  10  14
ENDBRANCH   1  10
TORSDOF 7
