REMARK  Name = Technetium Tc-99m sulfur colloid
REMARK  0 active torsions:
REMARK  status: ('A' for Active; 'I' for Inactive)
REMARK                            x       y       z     vdW  Elec       q    Type
REMARK                         _______ _______ _______ _____ _____    ______ ____
ROOT
ATOM      1 TC   UNL     1       1.090   0.014   0.041  0.00  0.00    +0.000 Tc
ENDROOT
TORSDOF 0
REMARK  Name = Technetium Tc-99m sulfur colloid
REMARK  0 active torsions:
REMARK  status: ('A' for Active; 'I' for Inactive)
REMARK                            x       y       z     vdW  Elec       q    Type
REMARK                         _______ _______ _______ _____ _____    ______ ____
ROOT
ATOM      1  S   UNL     1      -1.350   0.001   0.798  0.00  0.00    +0.000 S 
ATOM      2  S   UNL     1      -1.373  -1.248  -0.085  0.00  0.00    +0.000 S 
ATOM      3  S   UNL     1       0.011  -1.463  -0.700  0.00  0.00    +0.000 S 
ATOM      4  S   UNL     1       1.084  -1.250   0.370  0.00  0.00    +0.000 S 
ATOM      5  S   UNL     1       1.901  -0.001   0.031  0.00  0.00    +0.000 S 
ATOM      6  S   UNL     1       1.086   1.248   0.370  0.00  0.00    +0.000 S 
ATOM      7  S   UNL     1       0.013   1.463  -0.700  0.00  0.00    +0.000 S 
ATOM      8  S   UNL     1      -1.371   1.250  -0.085  0.00  0.00    +0.000 S 
ENDROOT
TORSDOF 0
