REMARK  Name = Technetium Tc-99m pyrophosphate
REMARK  2 active torsions:
REMARK  status: ('A' for Active; 'I' for Inactive)
REMARK    1  A    between atoms: P_3  and  O_6
REMARK    2  A    between atoms: O_6  and  P_7
REMARK                            x       y       z     vdW  Elec       q    Type
REMARK                         _______ _______ _______ _____ _____    ______ ____
ROOT
ATOM      1 TC   UNL     1       0.928  -0.034  -0.060  0.00  0.00    +0.000 Tc
ENDROOT
TORSDOF 0
REMARK  Name = Technetium Tc-99m pyrophosphate
REMARK  2 active torsions:
REMARK  status: ('A' for Active; 'I' for Inactive)
REMARK    1  A    between atoms: P_3  and  O_6
REMARK    2  A    between atoms: O_6  and  P_7
REMARK                            x       y       z     vdW  Elec       q    Type
REMARK                         _______ _______ _______ _____ _____    ______ ____
ROOT
ATOM      1  O   UNL     2       4.526  -0.048  -0.058  0.00  0.00    +0.000 OA
ENDROOT
BRANCH   1   3
ATOM      2  O   UNL     2       1.066  -0.048  -0.058  0.00  0.00    +0.000 OA
ATOM      3  P   UNL     2       2.796  -0.048  -0.058  0.00  0.00    +0.000 P 
ATOM      4  O   UNL     2       2.796   1.671  -0.258  0.00  0.00    +0.000 OA
ATOM      5  O   UNL     2       2.796  -0.662   1.363  0.00  0.00    +0.000 OA
ENDBRANCH   1   3
BRANCH   1   6
ATOM      6  P   UNL     2       5.103  -1.476  -0.845  0.00  0.00    +0.000 P 
ATOM      7  O   UNL     2       6.720  -0.866  -0.767  0.00  0.00    +0.000 OA
ATOM      8  O   UNL     2       4.479  -2.441   0.449  0.00  0.00    +0.000 OA
ATOM      9  O   UNL     2       5.619  -2.755  -1.549  0.00  0.00    +0.000 OA
ENDBRANCH   1   6
TORSDOF 2
