REMARK  Name = Technetium Tc-99m medronate
REMARK  2 active torsions:
REMARK  status: ('A' for Active; 'I' for Inactive)
REMARK    1  A    between atoms: P_5  and  C_8
REMARK    2  A    between atoms: C_8  and  P_9
REMARK                            x       y       z     vdW  Elec       q    Type
REMARK                         _______ _______ _______ _____ _____    ______ ____
ROOT
ATOM      1  O   HOH     1       1.052   0.034  -0.078  0.00  0.00    +0.000 OA
ATOM      2  H   HOH     0       2.022   0.034  -0.078  0.00  0.00    +0.000 HD
ATOM      3  H   HOH     0       0.729   0.437  -0.899  0.00  0.00    +0.000 HD
ENDROOT
TORSDOF 0
REMARK  Name = Technetium Tc-99m medronate
REMARK  2 active torsions:
REMARK  status: ('A' for Active; 'I' for Inactive)
REMARK    1  A    between atoms: P_5  and  C_8
REMARK    2  A    between atoms: C_8  and  P_9
REMARK                            x       y       z     vdW  Elec       q    Type
REMARK                         _______ _______ _______ _____ _____    ______ ____
ROOT
ATOM      1  O   HOH     2       0.961   0.092  -0.009  0.00  0.00    +0.000 OA
ATOM      2  H   HOH     0       1.931   0.092  -0.009  0.00  0.00    +0.000 HD
ATOM      3  H   HOH     0       0.638   0.946  -0.336  0.00  0.00    +0.000 HD
ENDROOT
TORSDOF 0
REMARK  Name = Technetium Tc-99m medronate
REMARK  2 active torsions:
REMARK  status: ('A' for Active; 'I' for Inactive)
REMARK    1  A    between atoms: P_5  and  C_8
REMARK    2  A    between atoms: C_8  and  P_9
REMARK                            x       y       z     vdW  Elec       q    Type
REMARK                         _______ _______ _______ _____ _____    ______ ____
ROOT
ATOM      1 TC   UNL     3       1.055   0.008  -0.083  0.00  0.00    +0.000 Tc
ENDROOT
TORSDOF 0
REMARK  Name = Technetium Tc-99m medronate
REMARK  2 active torsions:
REMARK  status: ('A' for Active; 'I' for Inactive)
REMARK    1  A    between atoms: P_5  and  C_8
REMARK    2  A    between atoms: C_8  and  P_9
REMARK                            x       y       z     vdW  Elec       q    Type
REMARK                         _______ _______ _______ _____ _____    ______ ____
ROOT
ATOM      1  C   UNL     4       4.514  -0.071  -0.053  0.00  0.00    +0.000 C 
ENDROOT
BRANCH   1   3
ATOM      2  O   UNL     4       0.954  -0.071  -0.053  0.00  0.00    +0.000 OA
ATOM      3  P   UNL     4       2.684  -0.071  -0.053  0.00  0.00    +0.000 P 
ATOM      4  O   UNL     4       2.684   1.612  -0.455  0.00  0.00    +0.000 OA
ATOM      5  O   UNL     4       2.684  -0.513   1.430  0.00  0.00    +0.000 OA
ENDBRANCH   1   3
BRANCH   1   6
ATOM      6  P   UNL     4       5.124  -0.758  -1.636  0.00  0.00    +0.000 P 
ATOM      7  O   UNL     4       3.594  -0.422  -2.371  0.00  0.00    +0.000 OA
ATOM      8  O   UNL     4       6.379   0.432  -1.669  0.00  0.00    +0.000 OA
ATOM      9  O   UNL     4       5.640  -1.340  -2.975  0.00  0.00    +0.000 OA
ENDBRANCH   1   6
TORSDOF 2
