REMARK  Name = Technetium Tc-99m disofenin
REMARK  15 active torsions:
REMARK  status: ('A' for Active; 'I' for Inactive)
REMARK    1  A    between atoms: C_2  and  C_3
REMARK    2  A    between atoms: C_3  and  C_4
REMARK    3  A    between atoms: C_3  and  C_5
REMARK    4  A    between atoms: C_9  and  C_10
REMARK    5  A    between atoms: C_10  and  C_11
REMARK    6  A    between atoms: C_10  and  C_12
REMARK    7  A    between atoms: C_13  and  N_14
REMARK    8  A    between atoms: C_15  and  C_17
REMARK    9  A    between atoms: C_17  and  N_18
REMARK   10  A    between atoms: N_18  and  C_19
REMARK   11  A    between atoms: N_18  and  C_23
REMARK   12  A    between atoms: C_19  and  C_20
REMARK   13  A    between atoms: C_20  and  O_21
REMARK   14  A    between atoms: C_23  and  C_24
REMARK   15  A    between atoms: C_24  and  O_25
REMARK                            x       y       z     vdW  Elec       q    Type
REMARK                         _______ _______ _______ _____ _____    ______ ____
ROOT
ATOM      1 TC   UNL     1       0.938  -0.059   0.051  0.00  0.00    +0.000 Tc
ENDROOT
TORSDOF 0
REMARK  Name = Technetium Tc-99m disofenin
REMARK  15 active torsions:
REMARK  status: ('A' for Active; 'I' for Inactive)
REMARK    1  A    between atoms: C_2  and  C_3
REMARK    2  A    between atoms: C_3  and  C_4
REMARK    3  A    between atoms: C_3  and  C_5
REMARK    4  A    between atoms: C_9  and  C_10
REMARK    5  A    between atoms: C_10  and  C_11
REMARK    6  A    between atoms: C_10  and  C_12
REMARK    7  A    between atoms: C_13  and  N_14
REMARK    8  A    between atoms: C_15  and  C_17
REMARK    9  A    between atoms: C_17  and  N_18
REMARK   10  A    between atoms: N_18  and  C_19
REMARK   11  A    between atoms: N_18  and  C_23
REMARK   12  A    between atoms: C_19  and  C_20
REMARK   13  A    between atoms: C_20  and  O_21
REMARK   14  A    between atoms: C_23  and  C_24
REMARK   15  A    between atoms: C_24  and  O_25
REMARK                            x       y       z     vdW  Elec       q    Type
REMARK                         _______ _______ _______ _____ _____    ______ ____
ROOT
ATOM      1  N   UNL     2       1.479   2.562   0.097  0.00  0.00    +0.000 N 
ATOM      2  C   UNL     2       1.062   1.490   1.013  0.00  0.00    +0.000 C 
ATOM      3  O   UNL     2       1.552   0.324   0.891  0.00  0.00    +0.000 OA
ATOM      4  H   UNL     2       1.100   3.465   0.191  0.00  0.00    +0.000 HD
ENDROOT
BRANCH   1  10
ATOM      5  C   UNL     2       2.971   1.063  -1.081  0.00  0.00    +0.000 A 
ATOM      6  C   UNL     2       3.779   0.724  -2.154  0.00  0.00    +0.000 A 
ATOM      7  C   UNL     2       4.232   1.835  -2.904  0.00  0.00    +0.000 A 
ATOM      8  C   UNL     2       3.691   3.039  -2.860  0.00  0.00    +0.000 A 
ATOM      9  C   UNL     2       2.849   3.290  -1.812  0.00  0.00    +0.000 A 
ATOM     10  C   UNL     2       2.463   2.284  -0.960  0.00  0.00    +0.000 A 
BRANCH   5  12
ATOM     11  C   UNL     2       0.944   0.056  -0.062  0.00  0.00    +0.000 C 
ATOM     12  C   UNL     2       2.464   0.056  -0.062  0.00  0.00    +0.000 C 
ATOM     13  C   UNL     2       2.971  -1.331  -0.424  0.00  0.00    +0.000 C 
ENDBRANCH   5  12
BRANCH   9  14
ATOM     14  C   UNL     2       2.331   4.701  -1.588  0.00  0.00    +0.000 C 
ATOM     15  C   UNL     2       1.552   5.155  -2.812  0.00  0.00    +0.000 C 
ATOM     16  C   UNL     2       1.420   4.720  -0.372  0.00  0.00    +0.000 C 
ENDBRANCH   9  14
ENDBRANCH   1  10
BRANCH   2  17
ATOM     17  C   UNL     2       0.045   1.778   2.105  0.00  0.00    +0.000 C 
BRANCH  17  18
ATOM     18  N   UNL     2      -0.202   0.553   2.879  0.00  0.00    +0.000 NA
BRANCH  18  19
ATOM     19  C   UNL     2       1.056   0.096   3.489  0.00  0.00    +0.000 C 
BRANCH  19  20
ATOM     20  C   UNL     2       2.073  -0.191   2.396  0.00  0.00    +0.000 C 
ATOM     21  O   UNL     2       3.237  -0.600   2.703  0.00  0.00    +0.000 OA
BRANCH  20  22
ATOM     22  O   UNL     2       1.723  -0.003   1.033  0.00  0.00    +0.000 OA
ATOM     23  H   UNL     2       0.865   0.299   0.807  0.00  0.00    +0.000 HD
ENDBRANCH  20  22
ENDBRANCH  19  20
ENDBRANCH  18  19
BRANCH  18  24
ATOM     24  C   UNL     2      -1.185   0.830   3.936  0.00  0.00    +0.000 C 
BRANCH  24  25
ATOM     25  C   UNL     2      -1.440  -0.436   4.737  0.00  0.00    +0.000 C 
ATOM     26  O   UNL     2      -2.263  -0.421   5.705  0.00  0.00    +0.000 OA
BRANCH  25  27
ATOM     27  O   UNL     2      -0.760  -1.637   4.402  0.00  0.00    +0.000 OA
ATOM     28  H   UNL     2      -0.153  -1.648   3.688  0.00  0.00    +0.000 HD
ENDBRANCH  25  27
ENDBRANCH  24  25
ENDBRANCH  18  24
ENDBRANCH  17  18
ENDBRANCH   2  17
TORSDOF 11
