REMARK  Name = Tecovirimat
REMARK  3 active torsions:
REMARK  status: ('A' for Active; 'I' for Inactive)
REMARK    1  A    between atoms: C_2  and  C_5
REMARK    2  A    between atoms: C_8  and  C_11
REMARK    3  A    between atoms: N_13  and  N_14
REMARK                            x       y       z     vdW  Elec       q    Type
REMARK                         _______ _______ _______ _____ _____    ______ ____
ROOT
ATOM      1  C   UNL     1       4.000  -2.909  -4.674  0.00  0.00    +0.000 C 
ATOM      2  O   UNL     1       3.766  -4.116  -4.687  0.00  0.00    +0.000 OA
ATOM      3  N   UNL     1       4.575  -2.228  -5.738  0.00  0.00    +0.000 N 
ATOM      4  H   UNL     1       4.853  -1.257  -5.716  0.00  0.00    +0.000 HD
ENDROOT
BRANCH   3   5
ATOM      5  N   UNL     1       4.824  -2.907  -6.937  0.00  0.00    +0.000 N 
ATOM      6  C   UNL     1       3.867  -3.644  -7.591  0.00  0.00    +0.000 C 
ATOM      7  O   UNL     1       2.679  -3.776  -7.310  0.00  0.00    +0.000 OA
ATOM      8  C   UNL     1       4.508  -4.268  -8.798  0.00  0.00    +0.000 C 
ATOM      9  C   UNL     1       5.948  -3.673  -8.843  0.00  0.00    +0.000 C 
ATOM     10  C   UNL     1       6.990  -4.830  -8.782  0.00  0.00    +0.000 C 
ATOM     11  C   UNL     1       6.700  -5.593  -7.491  0.00  0.00    +0.000 C 
ATOM     12  C   UNL     1       5.451  -6.097  -7.421  0.00  0.00    +0.000 C 
ATOM     13  C   UNL     1       4.584  -5.813  -8.651  0.00  0.00    +0.000 C 
ATOM     14  C   UNL     1       5.304  -6.322  -9.914  0.00  0.00    +0.000 C 
ATOM     15  C   UNL     1       6.500  -7.248  -9.867  0.00  0.00    +0.000 C 
ATOM     16  C   UNL     1       6.711  -5.750  -9.991  0.00  0.00    +0.000 C 
ATOM     17  C   UNL     1       6.016  -2.791  -7.613  0.00  0.00    +0.000 C 
ATOM     18  O   UNL     1       6.974  -2.091  -7.310  0.00  0.00    +0.000 OA
ENDBRANCH   3   5
BRANCH   1  22
ATOM     19  C   UNL     1       2.704  -0.701  -1.188  0.00  0.00    +0.000 A 
ATOM     20  C   UNL     1       2.397  -2.058  -1.349  0.00  0.00    +0.000 A 
ATOM     21  C   UNL     1       2.890  -2.767  -2.449  0.00  0.00    +0.000 A 
ATOM     22  C   UNL     1       3.626  -2.118  -3.457  0.00  0.00    +0.000 A 
ATOM     23  C   UNL     1       3.928  -0.761  -3.297  0.00  0.00    +0.000 A 
ATOM     24  C   UNL     1       3.478  -0.063  -2.169  0.00  0.00    +0.000 A 
BRANCH  19  26
ATOM     25  F   UNL     1       0.868   0.088   0.123  0.00  0.00    +0.000 F 
ATOM     26  C   UNL     1       2.225   0.040   0.036  0.00  0.00    +0.000 C 
ATOM     27  F   UNL     1       2.651   1.333   0.087  0.00  0.00    +0.000 F 
ATOM     28  F   UNL     1       2.656  -0.539   1.191  0.00  0.00    +0.000 F 
ENDBRANCH  19  26
ENDBRANCH   1  22
TORSDOF 3
