REMARK  Name = Tedizolid
REMARK  6 active torsions:
REMARK  status: ('A' for Active; 'I' for Inactive)
REMARK    1  A    between atoms: C_1  and  N_2
REMARK    2  A    between atoms: C_5  and  C_7
REMARK    3  A    between atoms: C_10  and  C_13
REMARK    4  A    between atoms: C_17  and  N_20
REMARK    5  A    between atoms: C_22  and  C_23
REMARK    6  A    between atoms: C_23  and  O_24
REMARK                            x       y       z     vdW  Elec       q    Type
REMARK                         _______ _______ _______ _____ _____    ______ ____
ROOT
ATOM      1  C   UNL     1      -5.769  -4.229   0.189  0.00  0.00    +0.000 A 
ATOM      2  C   UNL     1      -6.024  -5.182  -0.809  0.00  0.00    +0.000 A 
ATOM      3  F   UNL     1      -5.203  -5.275  -1.867  0.00  0.00    +0.000 F 
ATOM      4  C   UNL     1      -7.114  -6.052  -0.744  0.00  0.00    +0.000 A 
ATOM      5  C   UNL     1      -8.016  -5.946   0.313  0.00  0.00    +0.000 A 
ATOM      6  C   UNL     1      -7.794  -4.995   1.312  0.00  0.00    +0.000 A 
ATOM      7  C   UNL     1      -6.667  -4.164   1.266  0.00  0.00    +0.000 A 
ENDROOT
BRANCH   1  11
ATOM      8  C   UNL     1      -2.400  -1.657   0.038  0.00  0.00    +0.000 A 
ATOM      9  N   UNL     1      -2.523  -2.523   1.077  0.00  0.00    +0.000 NA
ATOM     10  C   UNL     1      -3.616  -3.325   1.085  0.00  0.00    +0.000 A 
ATOM     11  C   UNL     1      -4.612  -3.329   0.109  0.00  0.00    +0.000 A 
ATOM     12  C   UNL     1      -4.443  -2.433  -0.953  0.00  0.00    +0.000 A 
ATOM     13  C   UNL     1      -3.335  -1.584  -0.990  0.00  0.00    +0.000 A 
BRANCH   8  18
ATOM     14  C   UNL     1       2.110   0.097   0.033  0.00  0.00    +0.000 C 
ATOM     15  N   UNL     1       0.676  -0.003   0.000  0.00  0.00    +0.000 N 
ATOM     16  N   UNL     1      -0.115   1.081  -0.032  0.00  0.00    +0.000 NA
ATOM     17  N   UNL     1      -1.350   0.594  -0.024  0.00  0.00    +0.000 NA
ATOM     18  C   UNL     1      -1.236  -0.779   0.028  0.00  0.00    +0.000 A 
ATOM     19  N   UNL     1       0.047  -1.190   0.016  0.00  0.00    +0.000 NA
ENDBRANCH   8  18
ENDBRANCH   1  11
BRANCH   5  20
ATOM     20  N   UNL     1      -9.146  -6.774   0.388  0.00  0.00    +0.000 N 
ATOM     21  C   UNL     1      -9.096  -8.200   0.389  0.00  0.00    +0.000 C 
ATOM     22  C   UNL     1     -10.524  -8.575   0.763  0.00  0.00    +0.000 C 
ATOM     23  O   UNL     1     -11.298  -7.395   0.492  0.00  0.00    +0.000 OA
ATOM     24  C   UNL     1     -10.447  -6.325   0.427  0.00  0.00    +0.000 C 
ATOM     25  O   UNL     1     -10.837  -5.167   0.355  0.00  0.00    +0.000 OA
BRANCH  22  26
ATOM     26  C   UNL     1     -11.028  -9.797  -0.013  0.00  0.00    +0.000 C 
BRANCH  26  27
ATOM     27  O   UNL     1     -12.426  -9.793  -0.269  0.00  0.00    +0.000 OA
ATOM     28  H   UNL     1     -12.584  -9.245  -1.060  0.00  0.00    +0.000 HD
ENDBRANCH  26  27
ENDBRANCH  22  26
ENDBRANCH   5  20
TORSDOF 5
