REMARK  Name = Tedizolid phosphate
REMARK  9 active torsions:
REMARK  status: ('A' for Active; 'I' for Inactive)
REMARK    1  A    between atoms: C_1  and  N_2
REMARK    2  A    between atoms: C_5  and  C_7
REMARK    3  A    between atoms: C_10  and  C_13
REMARK    4  A    between atoms: C_16  and  N_20
REMARK    5  A    between atoms: C_22  and  C_23
REMARK    6  A    between atoms: C_23  and  O_24
REMARK    7  A    between atoms: O_24  and  P_25
REMARK    8  A    between atoms: P_25  and  O_26
REMARK    9  A    between atoms: P_25  and  O_27
REMARK                            x       y       z     vdW  Elec       q    Type
REMARK                         _______ _______ _______ _____ _____    ______ ____
ROOT
ATOM      1  C   UNL     1      -5.739  -4.255   0.168  0.00  0.00    +0.000 A 
ATOM      2  C   UNL     1      -6.637  -4.202   1.249  0.00  0.00    +0.000 A 
ATOM      3  C   UNL     1      -7.745  -5.049   1.298  0.00  0.00    +0.000 A 
ATOM      4  C   UNL     1      -7.926  -5.998   0.292  0.00  0.00    +0.000 A 
ATOM      5  C   UNL     1      -7.035  -6.089  -0.771  0.00  0.00    +0.000 A 
ATOM      6  C   UNL     1      -5.969  -5.207  -0.836  0.00  0.00    +0.000 A 
ATOM      7  F   UNL     1      -5.150  -5.284  -1.895  0.00  0.00    +0.000 F 
ENDROOT
BRANCH   1  11
ATOM      8  C   UNL     1      -2.402  -1.660   0.034  0.00  0.00    +0.000 A 
ATOM      9  C   UNL     1      -3.340  -1.583  -0.991  0.00  0.00    +0.000 A 
ATOM     10  C   UNL     1      -4.441  -2.440  -0.958  0.00  0.00    +0.000 A 
ATOM     11  C   UNL     1      -4.596  -3.346   0.096  0.00  0.00    +0.000 A 
ATOM     12  C   UNL     1      -3.600  -3.345   1.071  0.00  0.00    +0.000 A 
ATOM     13  N   UNL     1      -2.517  -2.531   1.069  0.00  0.00    +0.000 NA
BRANCH   8  18
ATOM     14  C   UNL     1       2.106   0.096   0.034  0.00  0.00    +0.000 C 
ATOM     15  N   UNL     1       0.672  -0.004   0.002  0.00  0.00    +0.000 N 
ATOM     16  N   UNL     1      -0.120   1.079  -0.034  0.00  0.00    +0.000 NA
ATOM     17  N   UNL     1      -1.354   0.592  -0.029  0.00  0.00    +0.000 NA
ATOM     18  C   UNL     1      -1.240  -0.781   0.025  0.00  0.00    +0.000 A 
ATOM     19  N   UNL     1       0.044  -1.191   0.018  0.00  0.00    +0.000 NA
ENDBRANCH   8  18
ENDBRANCH   1  11
BRANCH   4  20
ATOM     20  N   UNL     1      -9.010  -6.864   0.331  0.00  0.00    +0.000 N 
ATOM     21  C   UNL     1     -10.356  -6.413   0.347  0.00  0.00    +0.000 C 
ATOM     22  C   UNL     1     -11.087  -7.691   0.027  0.00  0.00    +0.000 C 
ATOM     23  O   UNL     1     -10.171  -8.765   0.252  0.00  0.00    +0.000 OA
ATOM     24  C   UNL     1      -8.923  -8.234   0.305  0.00  0.00    +0.000 C 
ATOM     25  O   UNL     1      -7.914  -8.923   0.364  0.00  0.00    +0.000 OA
BRANCH  22  26
ATOM     26  C   UNL     1     -12.301  -7.920   0.873  0.00  0.00    +0.000 C 
BRANCH  26  27
ATOM     27  O   UNL     1     -12.249  -7.233   2.156  0.00  0.00    +0.000 OA
BRANCH  27  28
ATOM     28  P   UNL     1     -13.659  -7.447   3.136  0.00  0.00    +0.000 P 
ATOM     29  O   UNL     1     -14.921  -7.637   4.013  0.00  0.00    +0.000 OA
BRANCH  28  30
ATOM     30  O   UNL     1     -14.535  -7.488   1.753  0.00  0.00    +0.000 OA
ATOM     31  H   UNL     1     -14.622  -6.622   1.326  0.00  0.00    +0.000 HD
ENDBRANCH  28  30
BRANCH  28  32
ATOM     32  O   UNL     1     -13.223  -9.025   3.174  0.00  0.00    +0.000 OA
ATOM     33  H   UNL     1     -12.263  -9.147   3.270  0.00  0.00    +0.000 HD
ENDBRANCH  28  32
ENDBRANCH  27  28
ENDBRANCH  26  27
ENDBRANCH  22  26
ENDBRANCH   4  20
TORSDOF 8
