REMARK  Name = Tegafur-uracil
REMARK  1 active torsions:
REMARK  status: ('A' for Active; 'I' for Inactive)
REMARK    1  A    between atoms: N_12  and  C_13
REMARK                            x       y       z     vdW  Elec       q    Type
REMARK                         _______ _______ _______ _____ _____    ______ ____
ROOT
ATOM      1  O   UNL     1      -2.601   1.035   0.118  0.00  0.00    +0.000 OA
ATOM      2  C   UNL     1      -1.577   0.395   0.009  0.00  0.00    +0.000 A 
ATOM      3  N   UNL     1      -1.569  -0.983  -0.042  0.00  0.00    +0.000 N 
ATOM      4  C   UNL     1      -0.457  -1.702  -0.293  0.00  0.00    +0.000 A 
ATOM      5  C   UNL     1       0.613  -1.058  -0.740  0.00  0.00    +0.000 A 
ATOM      6  C   UNL     1       0.609   0.410  -0.841  0.00  0.00    +0.000 A 
ATOM      7  O   UNL     1       1.476   1.060  -1.434  0.00  0.00    +0.000 OA
ATOM      8  N   UNL     1      -0.353   0.998  -0.099  0.00  0.00    +0.000 N 
ATOM      9  H   UNL     1      -2.430  -1.467   0.169  0.00  0.00    +0.000 HD
ATOM     10  H   UNL     1      -0.329   2.005  -0.075  0.00  0.00    +0.000 HD
ENDROOT
TORSDOF 0
REMARK  Name = Tegafur-uracil
REMARK  1 active torsions:
REMARK  status: ('A' for Active; 'I' for Inactive)
REMARK    1  A    between atoms: N_12  and  C_13
REMARK                            x       y       z     vdW  Elec       q    Type
REMARK                         _______ _______ _______ _____ _____    ______ ____
ROOT
ATOM      1  F   UNL     2       1.684  -0.229   1.555  0.00  0.00    +0.000 F 
ATOM      2  C   UNL     2       2.871  -0.080   0.935  0.00  0.00    +0.000 A 
ATOM      3  C   UNL     2       3.361   1.121   0.604  0.00  0.00    +0.000 A 
ATOM      4  N   UNL     2       4.581   1.238  -0.040  0.00  0.00    +0.000 N 
ATOM      5  C   UNL     2       5.372   0.111  -0.269  0.00  0.00    +0.000 A 
ATOM      6  O   UNL     2       6.516   0.125  -0.708  0.00  0.00    +0.000 OA
ATOM      7  N   UNL     2       4.834  -1.096   0.069  0.00  0.00    +0.000 N 
ATOM      8  C   UNL     2       3.553  -1.298   0.426  0.00  0.00    +0.000 A 
ATOM      9  O   UNL     2       3.069  -2.418   0.286  0.00  0.00    +0.000 OA
ATOM     10  H   UNL     2       5.331  -1.932  -0.186  0.00  0.00    +0.000 HD
ENDROOT
BRANCH   4  11
ATOM     11  C   UNL     2       5.162   2.530  -0.392  0.00  0.00    +0.000 C 
ATOM     12  C   UNL     2       5.143   3.615   0.673  0.00  0.00    +0.000 C 
ATOM     13  C   UNL     2       5.424   4.843  -0.162  0.00  0.00    +0.000 C 
ATOM     14  C   UNL     2       4.675   4.549  -1.448  0.00  0.00    +0.000 C 
ATOM     15  O   UNL     2       4.553   3.116  -1.557  0.00  0.00    +0.000 OA
ENDBRANCH   4  11
TORSDOF 1
