REMARK  Name = Tegafur
REMARK  1 active torsions:
REMARK  status: ('A' for Active; 'I' for Inactive)
REMARK    1  A    between atoms: N_4  and  C_5
REMARK                            x       y       z     vdW  Elec       q    Type
REMARK                         _______ _______ _______ _____ _____    ______ ____
ROOT
ATOM      1  F   UNL     1       0.979   0.166   0.180  0.00  0.00    +0.000 F 
ATOM      2  C   UNL     1       2.323   0.198   0.100  0.00  0.00    +0.000 A 
ATOM      3  C   UNL     1       3.022   1.338   0.085  0.00  0.00    +0.000 A 
ATOM      4  N   UNL     1       4.400   1.342  -0.090  0.00  0.00    +0.000 N 
ATOM      5  C   UNL     1       5.111   0.145  -0.185  0.00  0.00    +0.000 A 
ATOM      6  O   UNL     1       6.308   0.059  -0.446  0.00  0.00    +0.000 OA
ATOM      7  N   UNL     1       4.388  -1.002   0.031  0.00  0.00    +0.000 N 
ATOM      8  C   UNL     1       3.025  -1.095   0.011  0.00  0.00    +0.000 A 
ATOM      9  O   UNL     1       2.440  -2.173  -0.072  0.00  0.00    +0.000 OA
ATOM     10  H   UNL     1       4.901  -1.867  -0.042  0.00  0.00    +0.000 HD
ENDROOT
BRANCH   4  11
ATOM     11  C   UNL     1       5.135   2.573  -0.380  0.00  0.00    +0.000 C 
ATOM     12  C   UNL     1       5.159   3.653   0.694  0.00  0.00    +0.000 C 
ATOM     13  C   UNL     1       5.472   4.884  -0.130  0.00  0.00    +0.000 C 
ATOM     14  C   UNL     1       4.730   4.618  -1.424  0.00  0.00    +0.000 C 
ATOM     15  O   UNL     1       4.595   3.196  -1.560  0.00  0.00    +0.000 OA
ENDBRANCH   4  11
TORSDOF 1
