REMARK  Name = Tegaserod
REMARK  9 active torsions:
REMARK  status: ('A' for Active; 'I' for Inactive)
REMARK    1  A    between atoms: C_1  and  C_2
REMARK    2  A    between atoms: C_2  and  C_3
REMARK    3  A    between atoms: C_3  and  C_4
REMARK    4  A    between atoms: C_4  and  C_5
REMARK    5  A    between atoms: C_5  and  N_6
REMARK    6  A    between atoms: N_9  and  N_10
REMARK    7  A    between atoms: C_11  and  C_12
REMARK    8  A    between atoms: C_18  and  O_19
REMARK    9  A    between atoms: O_19  and  C_20
REMARK                            x       y       z     vdW  Elec       q    Type
REMARK                         _______ _______ _______ _____ _____    ______ ____
ROOT
ATOM      1  N   UNL     1       9.459  -1.422   5.250  0.00  0.00    +0.000 NA
ATOM      2  C   UNL     1      10.751  -1.329   5.251  0.00  0.00    +0.000 C 
ENDROOT
BRANCH   2   3
ATOM      3  C   UNL     1      11.474  -1.669   6.477  0.00  0.00    +0.000 A 
ATOM      4  C   UNL     1      12.568  -0.988   6.991  0.00  0.00    +0.000 A 
ATOM      5  N   UNL     1      12.921  -1.566   8.189  0.00  0.00    +0.000 N 
ATOM      6  C   UNL     1      12.153  -2.682   8.423  0.00  0.00    +0.000 A 
ATOM      7  C   UNL     1      11.236  -2.767   7.373  0.00  0.00    +0.000 A 
ATOM      8  C   UNL     1      10.336  -3.852   7.365  0.00  0.00    +0.000 A 
ATOM      9  C   UNL     1      10.384  -4.818   8.378  0.00  0.00    +0.000 A 
ATOM     10  C   UNL     1      11.303  -4.691   9.418  0.00  0.00    +0.000 A 
ATOM     11  C   UNL     1      12.197  -3.613   9.469  0.00  0.00    +0.000 A 
ATOM     12  H   UNL     1      13.657  -1.243   8.804  0.00  0.00    +0.000 HD
BRANCH   9  13
ATOM     13  O   UNL     1       9.485  -5.842   8.230  0.00  0.00    +0.000 OA
ATOM     14  C   UNL     1       9.493  -6.843   9.239  0.00  0.00    +0.000 C 
ENDBRANCH   9  13
ENDBRANCH   2   3
BRANCH   1  18
ATOM     15  N   UNL     1       6.676  -0.776   2.975  0.00  0.00    +0.000 N 
ATOM     16  C   UNL     1       7.337  -1.081   4.145  0.00  0.00    +0.000 C 
ATOM     17  N   UNL     1       6.702  -1.357   5.238  0.00  0.00    +0.000 NA
ATOM     18  N   UNL     1       8.726  -1.082   4.121  0.00  0.00    +0.000 N 
ATOM     19  H   UNL     1       7.200  -0.575   2.136  0.00  0.00    +0.000 HD
ATOM     20  H   UNL     1       5.699  -1.317   5.095  0.00  0.00    +0.000 HD
ATOM     21  H   UNL     1       9.199  -0.853   3.258  0.00  0.00    +0.000 HD
BRANCH  15  22
ATOM     22  C   UNL     1       5.214  -0.753   2.864  0.00  0.00    +0.000 C 
BRANCH  22  23
ATOM     23  C   UNL     1       4.691  -0.399   1.468  0.00  0.00    +0.000 C 
BRANCH  23  24
ATOM     24  C   UNL     1       3.150  -0.394   1.445  0.00  0.00    +0.000 C 
BRANCH  24  26
ATOM     25  C   UNL     1       1.074  -0.041   0.053  0.00  0.00    +0.000 C 
ATOM     26  C   UNL     1       2.597  -0.044   0.062  0.00  0.00    +0.000 C 
ENDBRANCH  24  26
ENDBRANCH  23  24
ENDBRANCH  22  23
ENDBRANCH  15  22
ENDBRANCH   1  18
TORSDOF 7
