REMARK  Name = Telaprevir
REMARK  18 active torsions:
REMARK  status: ('A' for Active; 'I' for Inactive)
REMARK    1  A    between atoms: C_8  and  C_37
REMARK    2  A    between atoms: C_11  and  C_13
REMARK    3  A    between atoms: C_13  and  N_14
REMARK    4  A    between atoms: C_13  and  C_33
REMARK    5  A    between atoms: C_15  and  C_17
REMARK    6  A    between atoms: C_17  and  N_18
REMARK    7  A    between atoms: C_17  and  C_27
REMARK    8  A    between atoms: C_19  and  C_21
REMARK    9  A    between atoms: C_33  and  C_34
REMARK   10  A    between atoms: C_33  and  C_35
REMARK   11  A    between atoms: C_33  and  C_36
REMARK   12  A    between atoms: N_39  and  C_40
REMARK   13  A    between atoms: C_40  and  C_41
REMARK   14  A    between atoms: C_40  and  C_44
REMARK   15  A    between atoms: C_41  and  C_42
REMARK   16  A    between atoms: C_42  and  C_43
REMARK   17  A    between atoms: C_44  and  C_46
REMARK   18  A    between atoms: N_48  and  C_49
REMARK                            x       y       z     vdW  Elec       q    Type
REMARK                         _______ _______ _______ _____ _____    ______ ____
ROOT
ATOM      1  C   UNL     1       1.922  -0.125   0.134  0.00  0.00    +0.000 C 
ATOM      2  C   UNL     1       2.466  -1.103   1.154  0.00  0.00    +0.000 C 
ATOM      3  C   UNL     1       2.809  -2.372   0.383  0.00  0.00    +0.000 C 
ATOM      4  C   UNL     1       3.410  -1.875  -0.895  0.00  0.00    +0.000 C 
ATOM      5  C   UNL     1       2.544  -0.639  -1.170  0.00  0.00    +0.000 C 
ATOM      6  C   UNL     1       3.466   0.468  -1.510  0.00  0.00    +0.000 C 
ATOM      7  N   UNL     1       3.765   1.176  -0.290  0.00  0.00    +0.000 N 
ATOM      8  C   UNL     1       2.496   1.277   0.413  0.00  0.00    +0.000 C 
ATOM      9  C   UNL     1       4.926   1.811   0.097  0.00  0.00    +0.000 C 
ATOM     10  O   UNL     1       4.906   2.399   1.184  0.00  0.00    +0.000 OA
ENDROOT
BRANCH   6  11
ATOM     11  C   UNL     1       2.762   1.493  -2.398  0.00  0.00    +0.000 C 
ATOM     12  O   UNL     1       2.635   2.629  -1.933  0.00  0.00    +0.000 OA
ATOM     13  N   UNL     1       2.396   1.035  -3.705  0.00  0.00    +0.000 N 
ATOM     14  H   UNL     1       2.234   0.052  -3.555  0.00  0.00    +0.000 HD
BRANCH  13  15
ATOM     15  C   UNL     1       2.398   1.669  -5.642  0.00  0.00    +0.000 C 
BRANCH  15  16
ATOM     16  C   UNL     1       1.611   1.076  -7.081  0.00  0.00    +0.000 C 
ATOM     17  O   UNL     1       1.440  -0.100  -7.474  0.00  0.00    +0.000 OA
BRANCH  16  18
ATOM     18  C   UNL     1       0.784   1.939  -7.969  0.00  0.00    +0.000 C 
ATOM     19  O   UNL     1       0.270   3.013  -7.746  0.00  0.00    +0.000 OA
ATOM     20  N   UNL     1       0.602   1.236  -9.113  0.00  0.00    +0.000 N 
ATOM     21  H   UNL     1       0.843   0.240  -9.073  0.00  0.00    +0.000 HD
BRANCH  20  22
ATOM     22  C   UNL     1      -0.088   1.870 -10.123  0.00  0.00    +0.000 C 
ATOM     23  C   UNL     1       0.167   3.360 -10.321  0.00  0.00    +0.000 C 
ATOM     24  C   UNL     1       0.717   2.346 -11.272  0.00  0.00    +0.000 C 
ENDBRANCH  20  22
ENDBRANCH  16  18
ENDBRANCH  15  16
BRANCH  15  25
ATOM     25  C   UNL     1       2.963   3.594  -5.862  0.00  0.00    +0.000 C 
BRANCH  25  26
ATOM     26  C   UNL     1       3.283   4.574  -4.230  0.00  0.00    +0.000 C 
ATOM     27  C   UNL     1       3.975   5.828  -4.407  0.00  0.00    +0.000 C 
ENDBRANCH  25  26
ENDBRANCH  15  25
ENDBRANCH  13  15
ENDBRANCH   6  11
BRANCH   9  28
ATOM     28  C   UNL     1       6.285   1.756  -0.768  0.00  0.00    +0.000 C 
BRANCH  28  29
ATOM     29  N   UNL     1       6.146   2.609  -1.953  0.00  0.00    +0.000 N 
ATOM     30  C   UNL     1       5.554   2.060  -2.998  0.00  0.00    +0.000 C 
ATOM     31  O   UNL     1       5.421   0.853  -2.998  0.00  0.00    +0.000 OA
ATOM     32  H   UNL     1       6.903   3.233  -2.256  0.00  0.00    +0.000 HD
BRANCH  30  33
ATOM     33  C   UNL     1       5.252   2.777  -4.233  0.00  0.00    +0.000 C 
BRANCH  33  34
ATOM     34  C   UNL     1       3.864   2.162  -4.550  0.00  0.00    +0.000 C 
ATOM     35  C   UNL     1       3.906   0.239  -4.841  0.00  0.00    +0.000 C 
ATOM     36  C   UNL     1       2.288  -0.546  -5.325  0.00  0.00    +0.000 C 
ATOM     37  C   UNL     1       0.501   0.311  -5.074  0.00  0.00    +0.000 C 
ATOM     38  C   UNL     1       0.330   2.266  -5.041  0.00  0.00    +0.000 C 
ATOM     39  C   UNL     1       1.870   2.995  -4.200  0.00  0.00    +0.000 C 
ENDBRANCH  33  34
BRANCH  33  40
ATOM     40  N   UNL     1       6.369   2.491  -5.129  0.00  0.00    +0.000 N 
ATOM     41  C   UNL     1       7.554   3.089  -4.731  0.00  0.00    +0.000 C 
ATOM     42  O   UNL     1       7.681   3.752  -3.704  0.00  0.00    +0.000 OA
ATOM     43  H   UNL     1       6.283   2.113  -6.071  0.00  0.00    +0.000 HD
BRANCH  41  44
ATOM     44  C   UNL     1       8.730   2.849  -5.531  0.00  0.00    +0.000 A 
ATOM     45  N   UNL     1       8.643   3.101  -6.856  0.00  0.00    +0.000 NA
ATOM     46  C   UNL     1       9.813   2.945  -7.499  0.00  0.00    +0.000 A 
ATOM     47  C   UNL     1      10.969   2.509  -6.860  0.00  0.00    +0.000 A 
ATOM     48  N   UNL     1      11.027   2.228  -5.536  0.00  0.00    +0.000 NA
ATOM     49  C   UNL     1       9.874   2.426  -4.871  0.00  0.00    +0.000 A 
ENDBRANCH  41  44
ENDBRANCH  33  40
ENDBRANCH  30  33
ENDBRANCH  28  29
BRANCH  28  50
ATOM     50  C   UNL     1       7.531   2.279  -0.018  0.00  0.00    +0.000 C 
ATOM     51  C   UNL     1       7.348   3.788   0.237  0.00  0.00    +0.000 C 
ATOM     52  C   UNL     1       7.741   1.519   1.294  0.00  0.00    +0.000 C 
ATOM     53  C   UNL     1       8.815   2.076  -0.864  0.00  0.00    +0.000 C 
ENDBRANCH  28  50
ENDBRANCH   9  28
TORSDOF 14
