REMARK  Name = Telbivudine
REMARK  5 active torsions:
REMARK  status: ('A' for Active; 'I' for Inactive)
REMARK    1  A    between atoms: C5M_1  and  C5_2
REMARK    2  A    between atoms: N1_4  and  C1*_5
REMARK    3  A    between atoms: C3*_7  and  O3*_8
REMARK    4  A    between atoms: C4*_9  and  C5*_10
REMARK    5  A    between atoms: C5*_10  and  O5*_11
REMARK                            x       y       z     vdW  Elec       q    Type
REMARK                         _______ _______ _______ _____ _____    ______ ____
ROOT
ATOM      1  C5M   T A   1       9.643   2.944   1.742  0.00  0.00    +0.000 C 
ATOM      2  C5    T A   1       8.473   2.101   1.347  0.00  0.00    +0.000 A 
ATOM      3  C6    T A   1       7.606   2.420   0.376  0.00  0.00    +0.000 A 
ATOM      4  N1    T A   1       6.409   1.748   0.167  0.00  0.00    +0.000 N 
ATOM      5  C2    T A   1       6.111   0.616   0.932  0.00  0.00    +0.000 A 
ATOM      6  O2    T A   1       5.012   0.069   0.973  0.00  0.00    +0.000 OA
ATOM      7  N3    T A   1       7.134   0.142   1.718  0.00  0.00    +0.000 N 
ATOM      8  C4    T A   1       8.219   0.866   2.110  0.00  0.00    +0.000 A 
ATOM      9  O4    T A   1       8.945   0.514   3.043  0.00  0.00    +0.000 OA
ATOM     10  H3    T A   1       6.920  -0.668   2.278  0.00  0.00    +0.000 HD
ENDROOT
BRANCH   4  11
ATOM     11  C1*   T A   1       5.269   2.496  -0.379  0.00  0.00    +0.000 C 
ATOM     12  C2*   T A   1       5.070   2.763  -1.876  0.00  0.00    +0.000 C 
ATOM     13  C3*   T A   1       4.337   4.105  -1.829  0.00  0.00    +0.000 C 
ATOM     14  C4*   T A   1       5.067   4.831  -0.712  0.00  0.00    +0.000 C 
ATOM     15  O4*   T A   1       5.288   3.795   0.269  0.00  0.00    +0.000 OA
BRANCH  13  16
ATOM     16  O3*   T A   1       2.964   3.914  -1.464  0.00  0.00    +0.000 OA
ATOM     17  H3*   T A   1       2.927   3.584  -0.547  0.00  0.00    +0.000 HD
ENDBRANCH  13  16
BRANCH  14  18
ATOM     18  C5*   T A   1       6.378   5.517  -1.162  0.00  0.00    +0.000 C 
BRANCH  18  19
ATOM     19  O5*   T A   1       6.689   5.295  -2.537  0.00  0.00    +0.000 OA
ATOM     20  H5*   T A   1       6.001   5.730  -3.073  0.00  0.00    +0.000 HD
ENDBRANCH  18  19
ENDBRANCH  14  18
ENDBRANCH   4  11
TORSDOF 4
