REMARK  Name = Telmisartan
REMARK  11 active torsions:
REMARK  status: ('A' for Active; 'I' for Inactive)
REMARK    1  A    between atoms: C_1  and  C_2
REMARK    2  A    between atoms: C_2  and  C_3
REMARK    3  A    between atoms: C_3  and  C_4
REMARK    4  A    between atoms: C_9  and  C_13
REMARK    5  A    between atoms: C_11  and  C_12
REMARK    6  A    between atoms: N_21  and  C_22
REMARK    7  A    between atoms: N_23  and  C_24
REMARK    8  A    between atoms: C_24  and  C_25
REMARK    9  A    between atoms: C_28  and  C_31
REMARK   10  A    between atoms: C_36  and  C_37
REMARK   11  A    between atoms: C_37  and  O_38
REMARK                            x       y       z     vdW  Elec       q    Type
REMARK                         _______ _______ _______ _____ _____    ______ ____
ROOT
ATOM      1  C   UNL     1       4.516  -0.432   1.338  0.00  0.00    +0.000 A 
ATOM      2  N   UNL     1       5.305   0.509   1.822  0.00  0.00    +0.000 NA
ATOM      3  C   UNL     1       6.585   0.091   1.622  0.00  0.00    +0.000 A 
ATOM      4  C   UNL     1       6.601  -1.156   1.008  0.00  0.00    +0.000 A 
ATOM      5  C   UNL     1       7.798  -1.797   0.663  0.00  0.00    +0.000 A 
ATOM      6  C   UNL     1       8.997  -1.139   0.977  0.00  0.00    +0.000 A 
ATOM      7  C   UNL     1       8.983   0.115   1.599  0.00  0.00    +0.000 A 
ATOM      8  C   UNL     1       7.784   0.756   1.945  0.00  0.00    +0.000 A 
ATOM      9  C   UNL     1       7.823   2.099   2.612  0.00  0.00    +0.000 C 
ATOM     10  N   UNL     1       5.260  -1.512   0.866  0.00  0.00    +0.000 N 
ENDROOT
BRANCH   6  11
ATOM     11  C   UNL     1      10.270  -1.770   0.652  0.00  0.00    +0.000 A 
ATOM     12  N   UNL     1      10.656  -2.133  -0.557  0.00  0.00    +0.000 NA
ATOM     13  C   UNL     1      11.907  -2.672  -0.407  0.00  0.00    +0.000 A 
ATOM     14  C   UNL     1      12.780  -3.194  -1.375  0.00  0.00    +0.000 A 
ATOM     15  C   UNL     1      14.011  -3.716  -0.958  0.00  0.00    +0.000 A 
ATOM     16  C   UNL     1      14.366  -3.717   0.391  0.00  0.00    +0.000 A 
ATOM     17  C   UNL     1      13.514  -3.192   1.366  0.00  0.00    +0.000 A 
ATOM     18  C   UNL     1      12.291  -2.673   0.930  0.00  0.00    +0.000 A 
ATOM     19  N   UNL     1      11.236  -2.090   1.586  0.00  0.00    +0.000 N 
ATOM     20  C   UNL     1      11.132  -1.888   3.012  0.00  0.00    +0.000 C 
ENDBRANCH   6  11
BRANCH   1  21
ATOM     21  C   UNL     1       3.028  -0.267   1.394  0.00  0.00    +0.000 C 
BRANCH  21  23
ATOM     22  C   UNL     1       0.919   0.516   0.200  0.00  0.00    +0.000 C 
ATOM     23  C   UNL     1       2.444   0.444   0.158  0.00  0.00    +0.000 C 
ENDBRANCH  21  23
ENDBRANCH   1  21
BRANCH  10  24
ATOM     24  C   UNL     1       4.875  -2.817   0.276  0.00  0.00    +0.000 C 
BRANCH  24  25
ATOM     25  C   UNL     1       3.402  -3.082   0.168  0.00  0.00    +0.000 A 
ATOM     26  C   UNL     1       2.666  -3.852   1.080  0.00  0.00    +0.000 A 
ATOM     27  C   UNL     1       1.280  -3.650   1.246  0.00  0.00    +0.000 A 
ATOM     28  C   UNL     1       0.575  -2.864   0.337  0.00  0.00    +0.000 A 
ATOM     29  C   UNL     1       1.336  -2.252  -0.680  0.00  0.00    +0.000 A 
ATOM     30  C   UNL     1       2.713  -2.380  -0.796  0.00  0.00    +0.000 A 
BRANCH  28  31
ATOM     31  C   UNL     1      -0.903  -2.713   0.329  0.00  0.00    +0.000 A 
ATOM     32  C   UNL     1      -1.598  -2.198   1.461  0.00  0.00    +0.000 A 
ATOM     33  C   UNL     1      -2.963  -1.889   1.400  0.00  0.00    +0.000 A 
ATOM     34  C   UNL     1      -3.705  -2.316   0.312  0.00  0.00    +0.000 A 
ATOM     35  C   UNL     1      -3.062  -2.911  -0.775  0.00  0.00    +0.000 A 
ATOM     36  C   UNL     1      -1.659  -3.025  -0.839  0.00  0.00    +0.000 A 
BRANCH  36  37
ATOM     37  C   UNL     1      -1.002  -3.487  -2.138  0.00  0.00    +0.000 C 
ATOM     38  O   UNL     1       0.192  -3.738  -2.309  0.00  0.00    +0.000 OA
BRANCH  37  39
ATOM     39  O   UNL     1      -1.791  -3.594  -3.218  0.00  0.00    +0.000 OA
ATOM     40  H   UNL     1      -2.744  -3.506  -3.104  0.00  0.00    +0.000 HD
ENDBRANCH  37  39
ENDBRANCH  36  37
ENDBRANCH  28  31
ENDBRANCH  24  25
ENDBRANCH  10  24
TORSDOF 8
