REMARK  Name = Telotristat ethyl
REMARK  14 active torsions:
REMARK  status: ('A' for Active; 'I' for Inactive)
REMARK    1  A    between atoms: C_1  and  C_2
REMARK    2  A    between atoms: C_2  and  O_3
REMARK    3  A    between atoms: O_3  and  C_4
REMARK    4  A    between atoms: C_4  and  C_6
REMARK    5  A    between atoms: C_6  and  N_7
REMARK    6  A    between atoms: C_6  and  C_8
REMARK    7  A    between atoms: C_8  and  C_9
REMARK    8  A    between atoms: C_12  and  C_15
REMARK    9  A    between atoms: C_20  and  O_21
REMARK   10  A    between atoms: O_21  and  C_22
REMARK   11  A    between atoms: C_22  and  C_23
REMARK   12  A    between atoms: C_22  and  C_36
REMARK   13  A    between atoms: C_29  and  N_30
REMARK   14  A    between atoms: C_33  and  C_34
REMARK                            x       y       z     vdW  Elec       q    Type
REMARK                         _______ _______ _______ _____ _____    ______ ____
ROOT
ATOM      1  C   UNL     1       7.791   9.371  -4.191  0.00  0.00    +0.000 A 
ATOM      2  N   UNL     1       7.223  10.373  -3.507  0.00  0.00    +0.000 NA
ATOM      3  C   UNL     1       7.799  10.666  -2.362  0.00  0.00    +0.000 A 
ATOM      4  N   UNL     1       7.302  11.753  -1.702  0.00  0.00    +0.000 N 
ATOM      5  N   UNL     1       8.887  10.038  -1.888  0.00  0.00    +0.000 NA
ATOM      6  C   UNL     1       9.566   9.236  -2.717  0.00  0.00    +0.000 A 
ATOM      7  C   UNL     1       9.013   8.808  -3.883  0.00  0.00    +0.000 A 
ATOM      8  H   UNL     1       6.496  12.214  -2.088  0.00  0.00    +0.000 HD
ATOM      9  H   UNL     1       7.628  11.939  -0.772  0.00  0.00    +0.000 HD
ENDROOT
BRANCH   1  13
ATOM     10  C   UNL     1       5.661   7.776  -7.469  0.00  0.00    +0.000 A 
ATOM     11  C   UNL     1       6.019   6.952  -6.398  0.00  0.00    +0.000 A 
ATOM     12  C   UNL     1       6.635   7.509  -5.289  0.00  0.00    +0.000 A 
ATOM     13  C   UNL     1       7.006   8.861  -5.287  0.00  0.00    +0.000 A 
ATOM     14  C   UNL     1       6.655   9.685  -6.350  0.00  0.00    +0.000 A 
ATOM     15  C   UNL     1       6.015   9.135  -7.443  0.00  0.00    +0.000 A 
BRANCH  10  16
ATOM     16  C   UNL     1       4.832   7.211  -8.600  0.00  0.00    +0.000 C 
BRANCH  16  17
ATOM     17  C   UNL     1       3.944   8.262  -9.304  0.00  0.00    +0.000 C 
BRANCH  17  18
ATOM     18  N   UNL     1       3.048   8.930  -8.328  0.00  0.00    +0.000 NA
ATOM     19  H   UNL     1       2.431   8.246  -7.894  0.00  0.00    +0.000 HD
ATOM     20  H   UNL     1       2.477   9.633  -8.790  0.00  0.00    +0.000 HD
ENDBRANCH  17  18
BRANCH  17  21
ATOM     21  C   UNL     1       3.150   7.606 -10.439  0.00  0.00    +0.000 C 
ATOM     22  O   UNL     1       3.197   6.430 -10.730  0.00  0.00    +0.000 OA
BRANCH  21  23
ATOM     23  O   UNL     1       2.394   8.548 -11.095  0.00  0.00    +0.000 OA
BRANCH  23  25
ATOM     24  C   UNL     1       0.836   9.099 -12.851  0.00  0.00    +0.000 C 
ATOM     25  C   UNL     1       1.635   7.998 -12.179  0.00  0.00    +0.000 C 
ENDBRANCH  23  25
ENDBRANCH  21  23
ENDBRANCH  17  21
ENDBRANCH  16  17
ENDBRANCH  10  16
ENDBRANCH   1  13
BRANCH   6  26
ATOM     26  O   UNL     1      10.871   8.843  -2.476  0.00  0.00    +0.000 OA
BRANCH  26  27
ATOM     27  C   UNL     1      11.798   9.490  -1.540  0.00  0.00    +0.000 C 
BRANCH  27  28
ATOM     28  C   UNL     1      11.310  10.635  -0.661  0.00  0.00    +0.000 A 
ATOM     29  C   UNL     1      10.703  11.724  -1.305  0.00  0.00    +0.000 A 
ATOM     30  C   UNL     1       9.953  12.647  -0.596  0.00  0.00    +0.000 A 
ATOM     31  C   UNL     1       9.863  12.538   0.782  0.00  0.00    +0.000 A 
ATOM     32 CL   UNL     1       8.759  13.551   1.621  0.00  0.00    +0.000 Cl
ATOM     33  C   UNL     1      10.636  11.600   1.465  0.00  0.00    +0.000 A 
ATOM     34  C   UNL     1      11.379  10.653   0.743  0.00  0.00    +0.000 A 
BRANCH  34  35
ATOM     35  N   UNL     1      12.247   9.796   1.461  0.00  0.00    +0.000 N 
ATOM     36  C   UNL     1      13.588   9.606   1.225  0.00  0.00    +0.000 A 
ATOM     37  C   UNL     1      14.053   8.731   2.167  0.00  0.00    +0.000 A 
ATOM     38  C   UNL     1      12.930   8.452   2.960  0.00  0.00    +0.000 A 
ATOM     39  C   UNL     1      12.904   7.567   4.141  0.00  0.00    +0.000 C 
ATOM     40  N   UNL     1      11.844   9.131   2.567  0.00  0.00    +0.000 NA
ENDBRANCH  34  35
ENDBRANCH  27  28
BRANCH  27  41
ATOM     41  C   UNL     1      13.051  10.030  -2.280  0.00  0.00    +0.000 C 
ATOM     42  F   UNL     1      12.739  10.974  -3.198  0.00  0.00    +0.000 F 
ATOM     43  F   UNL     1      13.930  10.621  -1.433  0.00  0.00    +0.000 F 
ATOM     44  F   UNL     1      13.739   9.054  -2.910  0.00  0.00    +0.000 F 
ENDBRANCH  27  41
ENDBRANCH  26  27
ENDBRANCH   6  26
TORSDOF 12
