REMARK  Name = Temazepam
REMARK  3 active torsions:
REMARK  status: ('A' for Active; 'I' for Inactive)
REMARK    1  A    between atoms: C_1  and  N_2
REMARK    2  A    between atoms: C_10  and  C_16
REMARK    3  A    between atoms: C_12  and  O_13
REMARK                            x       y       z     vdW  Elec       q    Type
REMARK                         _______ _______ _______ _____ _____    ______ ____
ROOT
ATOM      1  C   UNL     1       0.968  -0.074  -0.090  0.00  0.00    +0.000 C 
ATOM      2  N   UNL     1       2.425  -0.067  -0.061  0.00  0.00    +0.000 N 
ATOM      3  C   UNL     1       3.110   1.172   0.077  0.00  0.00    +0.000 A 
ATOM      4  C   UNL     1       4.278   1.339   0.845  0.00  0.00    +0.000 A 
ATOM      5  C   UNL     1       4.857   2.616   0.972  0.00  0.00    +0.000 A 
ATOM      6  C   UNL     1       4.293   3.714   0.329  0.00  0.00    +0.000 A 
ATOM      7 CL   UNL     1       5.010   5.267   0.493  0.00  0.00    +0.000 Cl
ATOM      8  C   UNL     1       3.155   3.560  -0.448  0.00  0.00    +0.000 A 
ATOM      9  C   UNL     1       2.570   2.300  -0.569  0.00  0.00    +0.000 A 
ATOM     10  C   UNL     1       4.909   0.224   1.607  0.00  0.00    +0.000 C 
ATOM     11  N   UNL     1       5.052  -0.984   1.183  0.00  0.00    +0.000 NA
ATOM     12  C   UNL     1       4.598  -1.350  -0.150  0.00  0.00    +0.000 C 
ATOM     13  C   UNL     1       3.049  -1.308  -0.176  0.00  0.00    +0.000 C 
ATOM     14  O   UNL     1       2.386  -2.346  -0.338  0.00  0.00    +0.000 OA
ENDROOT
BRANCH  10  15
ATOM     15  C   UNL     1       5.430   0.510   2.975  0.00  0.00    +0.000 A 
ATOM     16  C   UNL     1       6.770   0.238   3.267  0.00  0.00    +0.000 A 
ATOM     17  C   UNL     1       7.231   0.367   4.578  0.00  0.00    +0.000 A 
ATOM     18  C   UNL     1       6.379   0.848   5.572  0.00  0.00    +0.000 A 
ATOM     19  C   UNL     1       5.069   1.214   5.256  0.00  0.00    +0.000 A 
ATOM     20  C   UNL     1       4.577   1.003   3.967  0.00  0.00    +0.000 A 
ENDBRANCH  10  15
BRANCH  12  21
ATOM     21  O   UNL     1       5.031  -2.658  -0.506  0.00  0.00    +0.000 OA
ATOM     22  H   UNL     1       4.587  -3.229   0.148  0.00  0.00    +0.000 HD
ENDBRANCH  12  21
TORSDOF 2
