REMARK  Name = Temoporfin
REMARK  8 active torsions:
REMARK  status: ('A' for Active; 'I' for Inactive)
REMARK    1  A    between atoms: O_1  and  C_2
REMARK    2  A    between atoms: C_6  and  C_8
REMARK    3  A    between atoms: C_14  and  C_46
REMARK    4  A    between atoms: C_20  and  C_39
REMARK    5  A    between atoms: C_26  and  C_32
REMARK    6  A    between atoms: C_34  and  O_35
REMARK    7  A    between atoms: C_41  and  O_42
REMARK    8  A    between atoms: C_48  and  O_49
REMARK                            x       y       z     vdW  Elec       q    Type
REMARK                         _______ _______ _______ _____ _____    ______ ____
ROOT
ATOM      1  C   UNL     1       9.390 -10.583  -3.382  0.00  0.00    +0.000 C 
ATOM      2  C   UNL     1       9.607 -11.573  -5.019  0.00  0.00    +0.000 C 
ATOM      3  C   UNL     1      10.624 -10.955  -5.961  0.00  0.00    +0.000 C 
ATOM      4  C   UNL     1       9.164 -11.386  -5.437  0.00  0.00    +0.000 C 
ATOM      5  C   UNL     1       7.947 -12.646  -6.451  0.00  0.00    +0.000 C 
ATOM      6  N   UNL     1       9.178 -12.987  -6.471  0.00  0.00    +0.000 NA
ATOM      7  C   UNL     1       6.541 -12.179  -6.705  0.00  0.00    +0.000 C 
ATOM      8  C   UNL     1       6.184 -11.271  -5.786  0.00  0.00    +0.000 A 
ATOM      9  N   UNL     1       4.956 -10.812  -5.626  0.00  0.00    +0.000 N 
ATOM     10  C   UNL     1       4.856  -9.944  -4.587  0.00  0.00    +0.000 A 
ATOM     11  C   UNL     1       6.137  -9.839  -4.062  0.00  0.00    +0.000 A 
ATOM     12  C   UNL     1       6.875 -10.601  -4.784  0.00  0.00    +0.000 A 
ATOM     13  C   UNL     1       3.812  -9.296  -4.086  0.00  0.00    +0.000 C 
ATOM     14  C   UNL     1       3.978  -8.387  -2.903  0.00  0.00    +0.000 C 
ATOM     15  N   UNL     1       4.691  -7.319  -2.846  0.00  0.00    +0.000 NA
ATOM     16  C   UNL     1       4.457  -6.866  -1.626  0.00  0.00    +0.000 C 
ATOM     17  C   UNL     1       3.719  -7.738  -0.807  0.00  0.00    +0.000 C 
ATOM     18  C   UNL     1       3.325  -8.682  -1.622  0.00  0.00    +0.000 C 
ATOM     19  C   UNL     1       4.946  -5.713  -1.260  0.00  0.00    +0.000 C 
ATOM     20  C   UNL     1       5.455  -6.181  -0.121  0.00  0.00    +0.000 A 
ATOM     21  C   UNL     1       5.733  -6.764   0.964  0.00  0.00    +0.000 A 
ATOM     22  C   UNL     1       7.087  -7.884  -0.306  0.00  0.00    +0.000 A 
ATOM     23  C   UNL     1       8.012  -8.957  -1.896  0.00  0.00    +0.000 A 
ATOM     24  N   UNL     1       6.870  -7.317  -1.074  0.00  0.00    +0.000 N 
ATOM     25  H   UNL     1       4.205 -11.090  -6.212  0.00  0.00    +0.000 HD
ATOM     26  H   UNL     1       6.341  -5.941  -0.417  0.00  0.00    +0.000 HD
ENDROOT
BRANCH   1  31
ATOM     27  C   UNL     1      14.438 -13.234  -5.985  0.00  0.00    +0.000 A 
ATOM     28  C   UNL     1      15.210 -14.217  -6.529  0.00  0.00    +0.000 A 
ATOM     29  C   UNL     1      13.851 -14.734  -6.600  0.00  0.00    +0.000 A 
ATOM     30  C   UNL     1      12.209 -13.767  -5.564  0.00  0.00    +0.000 A 
ATOM     31  C   UNL     1      10.956 -12.178  -4.360  0.00  0.00    +0.000 A 
ATOM     32  C   UNL     1      12.714 -12.758  -5.200  0.00  0.00    +0.000 A 
BRANCH  27  33
ATOM     33  O   UNL     1      15.128 -12.195  -5.372  0.00  0.00    +0.000 OA
ATOM     34  H   UNL     1      16.071 -12.295  -5.227  0.00  0.00    +0.000 HD
ENDBRANCH  27  33
ENDBRANCH   1  31
BRANCH  19  35
ATOM     35  C   UNL     1       6.044  -4.871  -1.926  0.00  0.00    +0.000 A 
ATOM     36  C   UNL     1       5.576  -4.272  -3.031  0.00  0.00    +0.000 A 
ATOM     37  C   UNL     1       6.418  -3.501  -3.771  0.00  0.00    +0.000 A 
ATOM     38  C   UNL     1       7.745  -3.358  -3.417  0.00  0.00    +0.000 A 
ATOM     39  C   UNL     1       8.247  -3.959  -2.289  0.00  0.00    +0.000 A 
ATOM     40  C   UNL     1       7.409  -4.701  -1.518  0.00  0.00    +0.000 A 
BRANCH  37  41
ATOM     41  O   UNL     1       6.021  -2.840  -4.886  0.00  0.00    +0.000 OA
ATOM     42  H   UNL     1       5.086  -2.949  -5.120  0.00  0.00    +0.000 HD
ENDBRANCH  37  41
ENDBRANCH  19  35
BRANCH  13  43
ATOM     43  C   UNL     1       2.515  -9.514  -4.744  0.00  0.00    +0.000 A 
ATOM     44  C   UNL     1       1.924 -10.782  -4.824  0.00  0.00    +0.000 A 
ATOM     45  C   UNL     1       0.688 -10.939  -5.425  0.00  0.00    +0.000 A 
ATOM     46  C   UNL     1       0.055  -9.849  -5.987  0.00  0.00    +0.000 A 
ATOM     47  C   UNL     1       0.630  -8.600  -5.924  0.00  0.00    +0.000 A 
ATOM     48  C   UNL     1       1.850  -8.435  -5.304  0.00  0.00    +0.000 A 
BRANCH  45  49
ATOM     49  O   UNL     1       0.025 -12.121  -5.516  0.00  0.00    +0.000 OA
ATOM     50  H   UNL     1       0.472 -12.883  -5.115  0.00  0.00    +0.000 HD
ENDBRANCH  45  49
ENDBRANCH  13  43
BRANCH   7  51
ATOM     51  C   UNL     1       7.853 -12.109  -6.552  0.00  0.00    +0.000 A 
ATOM     52  C   UNL     1       9.136 -11.872  -7.962  0.00  0.00    +0.000 A 
ATOM     53  C   UNL     1      10.432 -12.539  -7.968  0.00  0.00    +0.000 A 
ATOM     54  C   UNL     1      10.776 -13.319  -6.809  0.00  0.00    +0.000 A 
ATOM     55  C   UNL     1       9.938 -13.996  -5.203  0.00  0.00    +0.000 A 
ATOM     56  C   UNL     1       8.316 -13.521  -5.079  0.00  0.00    +0.000 A 
BRANCH  53  57
ATOM     57  O   UNL     1      11.465 -12.376  -8.727  0.00  0.00    +0.000 OA
ATOM     58  H   UNL     1      10.983 -12.032  -9.461  0.00  0.00    +0.000 HD
ENDBRANCH  53  57
ENDBRANCH   7  51
TORSDOF 8
