REMARK  Name = Temocillin
REMARK  11 active torsions:
REMARK  status: ('A' for Active; 'I' for Inactive)
REMARK    1  A    between atoms: C_1  and  O_2
REMARK    2  A    between atoms: O_2  and  C_3
REMARK    3  A    between atoms: C_3  and  N_4
REMARK    4  A    between atoms: C_5  and  C_7
REMARK    5  A    between atoms: C_7  and  C_8
REMARK    6  A    between atoms: C_7  and  C_11
REMARK    7  A    between atoms: C_8  and  O_9
REMARK    8  A    between atoms: C_18  and  C_19
REMARK    9  A    between atoms: C_18  and  C_20
REMARK   10  A    between atoms: C_21  and  C_25
REMARK   11  A    between atoms: C_25  and  O_26
REMARK                            x       y       z     vdW  Elec       q    Type
REMARK                         _______ _______ _______ _____ _____    ______ ____
ROOT
ATOM      1  C   UNL     1       2.883  -0.841  -0.963  0.00  0.00    +0.000 C 
ATOM      2  C   UNL     1       4.119  -1.721  -0.588  0.00  0.00    +0.000 C 
ATOM      3  S   UNL     1       4.437  -1.961   1.211  0.00  0.00    +0.000 S 
ATOM      4  C   UNL     1       4.466  -3.805   0.995  0.00  0.00    +0.000 C 
ATOM      5  C   UNL     1       4.106  -4.408   2.354  0.00  0.00    +0.000 C 
ATOM      6  C   UNL     1       5.918  -4.083   0.575  0.00  0.00    +0.000 C 
ATOM      7  C   UNL     1       3.393  -4.094  -0.079  0.00  0.00    +0.000 C 
ATOM      8  N   UNL     1       3.417  -2.944  -1.003  0.00  0.00    +0.000 N 
ATOM      9  C   UNL     1       2.255  -2.294  -1.332  0.00  0.00    +0.000 C 
ATOM     10  O   UNL     1       1.184  -2.797  -1.626  0.00  0.00    +0.000 OA
ENDROOT
BRANCH   1  11
ATOM     11  N   UNL     1       2.314  -0.131   0.238  0.00  0.00    +0.000 N 
ATOM     12  C   UNL     1       0.959  -0.023   0.360  0.00  0.00    +0.000 C 
ATOM     13  O   UNL     1       0.223  -0.656  -0.388  0.00  0.00    +0.000 OA
ATOM     14  H   UNL     1       2.880   0.615   0.637  0.00  0.00    +0.000 HD
BRANCH  12  15
ATOM     15  C   UNL     1       0.428   0.929   1.426  0.00  0.00    +0.000 C 
BRANCH  15  16
ATOM     16  C   UNL     1      -1.000   0.564   1.826  0.00  0.00    +0.000 A 
ATOM     17  C   UNL     1      -1.601  -0.674   1.621  0.00  0.00    +0.000 A 
ATOM     18  S   UNL     1      -3.230  -0.738   2.112  0.00  0.00    +0.000 S 
ATOM     19  C   UNL     1      -3.154   0.857   2.697  0.00  0.00    +0.000 A 
ATOM     20  C   UNL     1      -1.909   1.417   2.536  0.00  0.00    +0.000 A 
ENDBRANCH  15  16
BRANCH  15  21
ATOM     21  C   UNL     1       0.672   2.365   0.975  0.00  0.00    +0.000 C 
ATOM     22  O   UNL     1       1.816   2.790   0.811  0.00  0.00    +0.000 OA
BRANCH  21  23
ATOM     23  O   UNL     1      -0.378   3.177   0.744  0.00  0.00    +0.000 OA
ATOM     24  H   UNL     1      -1.267   2.774   0.780  0.00  0.00    +0.000 HD
ENDBRANCH  21  23
ENDBRANCH  15  21
ENDBRANCH  12  15
ENDBRANCH   1  11
BRANCH   1  26
ATOM     25  C   UNL     1       3.083   1.446  -1.810  0.00  0.00    +0.000 C 
ATOM     26  O   UNL     1       3.062   0.051  -2.109  0.00  0.00    +0.000 OA
ENDBRANCH   1  26
BRANCH   7  27
ATOM     27  C   UNL     1       3.448  -5.430  -0.862  0.00  0.00    +0.000 C 
ATOM     28  O   UNL     1       2.682  -5.695  -1.781  0.00  0.00    +0.000 OA
BRANCH  27  29
ATOM     29  O   UNL     1       4.358  -6.359  -0.508  0.00  0.00    +0.000 OA
ATOM     30  H   UNL     1       4.835  -6.291   0.332  0.00  0.00    +0.000 HD
ENDBRANCH  27  29
ENDBRANCH   7  27
TORSDOF 8
