REMARK  Name = Temozolomide
REMARK  2 active torsions:
REMARK  status: ('A' for Active; 'I' for Inactive)
REMARK    1  A    between atoms: C_1  and  N_2
REMARK    2  A    between atoms: C_6  and  C_12
REMARK                            x       y       z     vdW  Elec       q    Type
REMARK                         _______ _______ _______ _____ _____    ______ ____
ROOT
ATOM      1  C   UNL     1      -3.049   0.000   0.014  0.00  0.00    +0.000 C 
ATOM      2  N   UNL     1      -1.619   0.233  -0.000  0.00  0.00    +0.000 N 
ATOM      3  N   UNL     1      -1.225   1.549  -0.001  0.00  0.00    +0.000 NA
ATOM      4  N   UNL     1      -0.007   1.843  -0.001  0.00  0.00    +0.000 NA
ATOM      5  C   UNL     1       0.937   0.880   0.000  0.00  0.00    +0.000 A 
ATOM      6  C   UNL     1       2.324   0.876   0.001  0.00  0.00    +0.000 A 
ATOM      7  N   UNL     1       2.794  -0.435  -0.002  0.00  0.00    +0.000 NA
ATOM      8  C   UNL     1       1.710  -1.187  -0.005  0.00  0.00    +0.000 A 
ATOM      9  N   UNL     1       0.564  -0.433  -0.002  0.00  0.00    +0.000 N 
ATOM     10  C   UNL     1      -0.756  -0.851  -0.002  0.00  0.00    +0.000 A 
ATOM     11  O   UNL     1      -1.026  -2.042  -0.002  0.00  0.00    +0.000 OA
ENDROOT
BRANCH   6  12
ATOM     12  C   UNL     1       3.174   2.068   0.001  0.00  0.00    +0.000 C 
ATOM     13  N   UNL     1       4.523   1.848  -0.008  0.00  0.00    +0.000 N 
ATOM     14  O   UNL     1       2.741   3.216   0.006  0.00  0.00    +0.000 OA
ATOM     15  H   UNL     1       4.914   0.915  -0.014  0.00  0.00    +0.000 HD
ATOM     16  H   UNL     1       5.131   2.655  -0.011  0.00  0.00    +0.000 HD
ENDBRANCH   6  12
TORSDOF 1
