REMARK  Name = Teniposide
REMARK  11 active torsions:
REMARK  status: ('A' for Active; 'I' for Inactive)
REMARK    1  A    between atoms: C_9  and  C_10
REMARK    2  A    between atoms: C_12  and  O_13
REMARK    3  A    between atoms: O_13  and  C_14
REMARK    4  A    between atoms: C_15  and  O_16
REMARK    5  A    between atoms: C_17  and  O_18
REMARK    6  A    between atoms: O_18  and  C_19
REMARK    7  A    between atoms: C_30  and  O_31
REMARK    8  A    between atoms: O_31  and  C_32
REMARK    9  A    between atoms: C_39  and  C_47
REMARK   10  A    between atoms: C_43  and  O_44
REMARK   11  A    between atoms: C_45  and  O_46
REMARK                            x       y       z     vdW  Elec       q    Type
REMARK                         _______ _______ _______ _____ _____    ______ ____
ROOT
ATOM      1  C   UNL     1       5.513   4.270  -1.183  0.00  0.00    +0.000 C 
ATOM      2  C   UNL     1       5.677   4.343  -2.682  0.00  0.00    +0.000 C 
ATOM      3  O   UNL     1       5.105   5.609  -3.043  0.00  0.00    +0.000 OA
ATOM      4  C   UNL     1       4.154   5.954  -2.120  0.00  0.00    +0.000 C 
ATOM      5  O   UNL     1       3.376   6.877  -2.264  0.00  0.00    +0.000 OA
ATOM      6  C   UNL     1       4.167   4.956  -0.995  0.00  0.00    +0.000 C 
ATOM      7  C   UNL     1       4.001   5.406   0.461  0.00  0.00    +0.000 C 
ATOM      8  C   UNL     1       4.195   4.149   1.350  0.00  0.00    +0.000 A 
ATOM      9  C   UNL     1       5.042   3.069   0.936  0.00  0.00    +0.000 A 
ATOM     10  C   UNL     1       5.399   2.073   1.859  0.00  0.00    +0.000 A 
ATOM     11  C   UNL     1       4.819   2.090   3.101  0.00  0.00    +0.000 A 
ATOM     12  O   UNL     1       4.981   1.132   4.050  0.00  0.00    +0.000 OA
ATOM     13  C   UNL     1       4.017   1.576   5.025  0.00  0.00    +0.000 C 
ATOM     14  O   UNL     1       3.514   2.904   4.759  0.00  0.00    +0.000 OA
ATOM     15  C   UNL     1       3.968   3.093   3.491  0.00  0.00    +0.000 A 
ATOM     16  C   UNL     1       3.659   4.148   2.657  0.00  0.00    +0.000 A 
ATOM     17  C   UNL     1       5.500   2.890  -0.506  0.00  0.00    +0.000 C 
ENDROOT
BRANCH   7  18
ATOM     18  C   UNL     1       4.929   6.558   0.881  0.00  0.00    +0.000 A 
ATOM     19  C   UNL     1       4.850   7.817   0.273  0.00  0.00    +0.000 A 
ATOM     20  C   UNL     1       5.725   8.853   0.609  0.00  0.00    +0.000 A 
ATOM     21  C   UNL     1       6.669   8.639   1.625  0.00  0.00    +0.000 A 
ATOM     22  C   UNL     1       6.742   7.416   2.295  0.00  0.00    +0.000 A 
ATOM     23  C   UNL     1       5.877   6.397   1.901  0.00  0.00    +0.000 A 
BRANCH  20  24
ATOM     24  O   UNL     1       5.725  10.091   0.010  0.00  0.00    +0.000 OA
ATOM     25  C   UNL     1       4.768  10.288  -1.036  0.00  0.00    +0.000 C 
ENDBRANCH  20  24
BRANCH  21  26
ATOM     26  O   UNL     1       7.532   9.647   1.975  0.00  0.00    +0.000 OA
ATOM     27  H   UNL     1       7.317  10.395   1.391  0.00  0.00    +0.000 HD
ENDBRANCH  21  26
BRANCH  22  28
ATOM     28  O   UNL     1       7.662   7.270   3.301  0.00  0.00    +0.000 OA
ATOM     29  C   UNL     1       7.683   6.008   3.968  0.00  0.00    +0.000 C 
ENDBRANCH  22  28
ENDBRANCH   7  18
BRANCH  17  30
ATOM     30  O   UNL     1       4.553   2.043  -1.170  0.00  0.00    +0.000 OA
BRANCH  30  31
ATOM     31  C   UNL     1       4.590   0.614  -0.976  0.00  0.00    +0.000 C 
ATOM     32  O   UNL     1       4.167   0.170   0.323  0.00  0.00    +0.000 OA
ATOM     33  C   UNL     1       4.016  -1.253   0.424  0.00  0.00    +0.000 C 
ATOM     34  C   UNL     1       3.613  -1.696   1.834  0.00  0.00    +0.000 C 
ATOM     35  O   UNL     1       3.517  -3.118   1.925  0.00  0.00    +0.000 OA
ATOM     36  C   UNL     1       4.703  -3.803   1.512  0.00  0.00    +0.000 C 
ATOM     37  O   UNL     1       5.094  -3.412   0.187  0.00  0.00    +0.000 OA
ATOM     38  C   UNL     1       5.312  -1.997   0.099  0.00  0.00    +0.000 C 
ATOM     39  C   UNL     1       5.775  -1.571  -1.306  0.00  0.00    +0.000 C 
ATOM     40  C   UNL     1       5.934  -0.034  -1.368  0.00  0.00    +0.000 C 
BRANCH  36  41
ATOM     41  C   UNL     1       4.320  -5.268   1.452  0.00  0.00    +0.000 A 
ATOM     42  C   UNL     1       3.339  -5.847   0.665  0.00  0.00    +0.000 A 
ATOM     43  C   UNL     1       3.171  -7.242   0.898  0.00  0.00    +0.000 A 
ATOM     44  C   UNL     1       4.043  -7.710   1.855  0.00  0.00    +0.000 A 
ATOM     45  S   UNL     1       5.055  -6.458   2.456  0.00  0.00    +0.000 S 
ENDBRANCH  36  41
BRANCH  39  46
ATOM     46  O   UNL     1       7.002  -2.215  -1.659  0.00  0.00    +0.000 OA
ATOM     47  H   UNL     1       7.696  -1.931  -1.042  0.00  0.00    +0.000 HD
ENDBRANCH  39  46
BRANCH  40  48
ATOM     48  O   UNL     1       6.358   0.404  -2.664  0.00  0.00    +0.000 OA
ATOM     49  H   UNL     1       5.702   0.100  -3.317  0.00  0.00    +0.000 HD
ENDBRANCH  40  48
ENDBRANCH  30  31
ENDBRANCH  17  30
TORSDOF 9
