REMARK  Name = Tenofovir alafenamide
REMARK  17 active torsions:
REMARK  status: ('A' for Active; 'I' for Inactive)
REMARK    1  A    between atoms: C_1  and  C_2
REMARK    2  A    between atoms: C_2  and  C_3
REMARK    3  A    between atoms: C_2  and  O_4
REMARK    4  A    between atoms: O_4  and  C_5
REMARK    5  A    between atoms: C_5  and  C_7
REMARK    6  A    between atoms: C_7  and  C_8
REMARK    7  A    between atoms: C_7  and  N_9
REMARK    8  A    between atoms: N_9  and  P_10
REMARK    9  A    between atoms: P_10  and  C_12
REMARK   10  A    between atoms: P_10  and  O_27
REMARK   11  A    between atoms: C_12  and  O_13
REMARK   12  A    between atoms: O_13  and  C_14
REMARK   13  A    between atoms: C_14  and  C_15
REMARK   14  A    between atoms: C_14  and  C_16
REMARK   15  A    between atoms: C_16  and  N_17
REMARK   16  A    between atoms: C_21  and  N_22
REMARK   17  A    between atoms: O_27  and  C_28
REMARK                            x       y       z     vdW  Elec       q    Type
REMARK                         _______ _______ _______ _____ _____    ______ ____
ROOT
ATOM      1  P   UNL     1       4.389   6.452  -5.650  0.00  0.00    +0.000 P 
ATOM      2  O   UNL     1       5.036   5.305  -6.380  0.00  0.00    +0.000 OA
ENDROOT
BRANCH   1   3
ATOM      3  N   UNL     1       2.938   6.847  -6.273  0.00  0.00    +0.000 NA
ATOM      4  H   UNL     1       3.004   6.754  -7.279  0.00  0.00    +0.000 HD
BRANCH   3   5
ATOM      5  C   UNL     1       2.130   7.996  -5.834  0.00  0.00    +0.000 C 
ATOM      6  C   UNL     1       2.700   9.247  -5.113  0.00  0.00    +0.000 C 
BRANCH   5   7
ATOM      7  C   UNL     1       1.108   8.450  -6.891  0.00  0.00    +0.000 C 
ATOM      8  O   UNL     1       0.965   9.605  -7.215  0.00  0.00    +0.000 OA
BRANCH   7   9
ATOM      9  O   UNL     1       0.413   7.398  -7.427  0.00  0.00    +0.000 OA
BRANCH   9  11
ATOM     10  C   UNL     1      -1.199   6.456  -8.943  0.00  0.00    +0.000 C 
ATOM     11  C   UNL     1      -0.544   7.745  -8.451  0.00  0.00    +0.000 C 
ATOM     12  C   UNL     1      -1.635   8.679  -7.925  0.00  0.00    +0.000 C 
ENDBRANCH   9  11
ENDBRANCH   7   9
ENDBRANCH   5   7
ENDBRANCH   3   5
ENDBRANCH   1   3
BRANCH   1  13
ATOM     13  C   UNL     1       4.176   6.065  -3.862  0.00  0.00    +0.000 C 
BRANCH  13  14
ATOM     14  O   UNL     1       3.861   4.659  -3.731  0.00  0.00    +0.000 OA
BRANCH  14  15
ATOM     15  C   UNL     1       3.502   4.253  -2.401  0.00  0.00    +0.000 C 
ATOM     16  C   UNL     1       4.759   3.877  -1.629  0.00  0.00    +0.000 C 
BRANCH  15  17
ATOM     17  C   UNL     1       2.527   3.062  -2.495  0.00  0.00    +0.000 C 
BRANCH  17  18
ATOM     18  N   UNL     1       1.298   3.345  -3.221  0.00  0.00    +0.000 N 
ATOM     19  C   UNL     1       0.457   2.399  -3.750  0.00  0.00    +0.000 A 
ATOM     20  N   UNL     1      -0.534   2.940  -4.430  0.00  0.00    +0.000 NA
ATOM     21  C   UNL     1      -0.348   4.301  -4.298  0.00  0.00    +0.000 A 
ATOM     22  C   UNL     1      -1.065   5.415  -4.767  0.00  0.00    +0.000 A 
ATOM     23  N   UNL     1      -0.676   6.652  -4.389  0.00  0.00    +0.000 NA
ATOM     24  C   UNL     1       0.349   6.745  -3.524  0.00  0.00    +0.000 A 
ATOM     25  N   UNL     1       1.134   5.770  -3.052  0.00  0.00    +0.000 NA
ATOM     26  C   UNL     1       0.742   4.566  -3.491  0.00  0.00    +0.000 A 
BRANCH  22  27
ATOM     27  N   UNL     1      -2.190   5.311  -5.547  0.00  0.00    +0.000 N 
ATOM     28  H   UNL     1      -2.546   4.391  -5.756  0.00  0.00    +0.000 HD
ATOM     29  H   UNL     1      -2.641   6.158  -5.849  0.00  0.00    +0.000 HD
ENDBRANCH  22  27
ENDBRANCH  17  18
ENDBRANCH  15  17
ENDBRANCH  14  15
ENDBRANCH  13  14
ENDBRANCH   1  13
BRANCH   1  30
ATOM     30  O   UNL     1       5.286   7.805  -5.734  0.00  0.00    +0.000 OA
BRANCH  30  31
ATOM     31  C   UNL     1       5.164   8.876  -6.609  0.00  0.00    +0.000 A 
ATOM     32  C   UNL     1       5.877  10.018  -6.252  0.00  0.00    +0.000 A 
ATOM     33  C   UNL     1       5.690  11.222  -6.957  0.00  0.00    +0.000 A 
ATOM     34  C   UNL     1       4.697  11.351  -7.928  0.00  0.00    +0.000 A 
ATOM     35  C   UNL     1       3.919  10.259  -8.225  0.00  0.00    +0.000 A 
ATOM     36  C   UNL     1       4.233   9.021  -7.654  0.00  0.00    +0.000 A 
ENDBRANCH  30  31
ENDBRANCH   1  30
TORSDOF 13
