REMARK  Name = Tenoxicam
REMARK  4 active torsions:
REMARK  status: ('A' for Active; 'I' for Inactive)
REMARK    1  A    between atoms: C_1  and  N_2
REMARK    2  A    between atoms: C_3  and  C_4
REMARK    3  A    between atoms: N_6  and  C_7
REMARK    4  A    between atoms: C_13  and  O_14
REMARK                            x       y       z     vdW  Elec       q    Type
REMARK                         _______ _______ _______ _____ _____    ______ ____
ROOT
ATOM      1  C   UNL     1       0.787   0.323   0.129  0.00  0.00    +0.000 C 
ATOM      2  N   UNL     1       2.209   0.056   0.123  0.00  0.00    +0.000 N 
ATOM      3  C   UNL     1       2.910  -1.215   0.080  0.00  0.00    +0.000 C 
ATOM      4  C   UNL     1       4.280  -1.257   0.088  0.00  0.00    +0.000 C 
ATOM      5  C   UNL     1       5.098  -0.076   0.100  0.00  0.00    +0.000 A 
ATOM      6  C   UNL     1       4.661   1.220   0.091  0.00  0.00    +0.000 A 
ATOM      7  C   UNL     1       5.640   2.230   0.106  0.00  0.00    +0.000 A 
ATOM      8  C   UNL     1       6.889   1.667   0.117  0.00  0.00    +0.000 A 
ATOM      9  S   UNL     1       6.824  -0.052   0.116  0.00  0.00    +0.000 S 
ATOM     10  S   UNL     1       3.011   1.523   0.057  0.00  0.00    +0.000 S 
ATOM     11  O   UNL     1       2.778   2.104  -1.257  0.00  0.00    +0.000 OA
ATOM     12  O   UNL     1       2.742   2.243   1.272  0.00  0.00    +0.000 OA
ENDROOT
BRANCH   3  13
ATOM     13  C   UNL     1       2.188  -2.564   0.113  0.00  0.00    +0.000 C 
ATOM     14  O   UNL     1       2.867  -3.596   0.163  0.00  0.00    +0.000 OA
ATOM     15  N   UNL     1       0.822  -2.617   0.034  0.00  0.00    +0.000 N 
ATOM     16  H   UNL     1       0.230  -1.946  -0.406  0.00  0.00    +0.000 HD
BRANCH  15  17
ATOM     17  C   UNL     1       0.049  -3.751   0.125  0.00  0.00    +0.000 A 
ATOM     18  C   UNL     1       0.370  -4.762   0.996  0.00  0.00    +0.000 A 
ATOM     19  C   UNL     1      -0.445  -5.873   0.990  0.00  0.00    +0.000 A 
ATOM     20  C   UNL     1      -1.535  -5.916   0.122  0.00  0.00    +0.000 A 
ATOM     21  C   UNL     1      -1.812  -4.812  -0.666  0.00  0.00    +0.000 A 
ATOM     22  N   UNL     1      -1.054  -3.705  -0.651  0.00  0.00    +0.000 NA
ENDBRANCH  15  17
ENDBRANCH   3  13
BRANCH   4  23
ATOM     23  O   UNL     1       5.036  -2.423   0.091  0.00  0.00    +0.000 OA
ATOM     24  H   UNL     1       4.438  -3.204   0.092  0.00  0.00    +0.000 HD
ENDBRANCH   4  23
TORSDOF 3
