REMARK  Name = Tenofovir disoproxil
REMARK  23 active torsions:
REMARK  status: ('A' for Active; 'I' for Inactive)
REMARK    1  A    between atoms: C_2  and  C_3
REMARK    2  A    between atoms: C_2  and  C_4
REMARK    3  A    between atoms: C_2  and  O_15
REMARK    4  A    between atoms: C_4  and  N_5
REMARK    5  A    between atoms: C_9  and  N_10
REMARK    6  A    between atoms: O_15  and  C_16
REMARK    7  A    between atoms: C_16  and  P_17
REMARK    8  A    between atoms: P_17  and  O_19
REMARK    9  A    between atoms: P_17  and  O_28
REMARK   10  A    between atoms: O_19  and  C_20
REMARK   11  A    between atoms: C_20  and  O_21
REMARK   12  A    between atoms: O_21  and  C_22
REMARK   13  A    between atoms: C_22  and  O_24
REMARK   14  A    between atoms: O_24  and  C_25
REMARK   15  A    between atoms: C_25  and  C_26
REMARK   16  A    between atoms: C_25  and  C_27
REMARK   17  A    between atoms: O_28  and  C_29
REMARK   18  A    between atoms: C_29  and  O_30
REMARK   19  A    between atoms: O_30  and  C_31
REMARK   20  A    between atoms: C_31  and  O_33
REMARK   21  A    between atoms: O_33  and  C_34
REMARK   22  A    between atoms: C_34  and  C_35
REMARK   23  A    between atoms: C_34  and  C_36
REMARK                            x       y       z     vdW  Elec       q    Type
REMARK                         _______ _______ _______ _____ _____    ______ ____
ROOT
ATOM      1  P   UNL     1       4.514   3.125   0.093  0.00  0.00    +0.000 P 
ATOM      2  O   UNL     1       4.715   2.969   1.608  0.00  0.00    +0.000 OA
ENDROOT
BRANCH   1   3
ATOM      3  O   UNL     1       5.091   4.754   0.169  0.00  0.00    +0.000 OA
BRANCH   3   4
ATOM      4  C   UNL     1       4.025   5.708   0.286  0.00  0.00    +0.000 C 
BRANCH   4   5
ATOM      5  O   UNL     1       4.500   7.069   0.344  0.00  0.00    +0.000 OA
BRANCH   5   6
ATOM      6  C   UNL     1       3.504   8.000   0.401  0.00  0.00    +0.000 C 
ATOM      7  O   UNL     1       2.304   7.733   0.348  0.00  0.00    +0.000 OA
BRANCH   6   8
ATOM      8  O   UNL     1       4.028   9.257   0.528  0.00  0.00    +0.000 OA
BRANCH   8   9
ATOM      9  C   UNL     1       3.095  10.370   0.616  0.00  0.00    +0.000 C 
ATOM     10  C   UNL     1       2.262  10.301   1.895  0.00  0.00    +0.000 C 
ATOM     11  C   UNL     1       3.866  11.699   0.630  0.00  0.00    +0.000 C 
ENDBRANCH   8   9
ENDBRANCH   6   8
ENDBRANCH   5   6
ENDBRANCH   4   5
ENDBRANCH   3   4
ENDBRANCH   1   3
BRANCH   1  12
ATOM     12  O   UNL     1       5.993   2.675  -0.680  0.00  0.00    +0.000 OA
BRANCH  12  13
ATOM     13  C   UNL     1       6.173   1.346  -1.221  0.00  0.00    +0.000 C 
BRANCH  13  14
ATOM     14  O   UNL     1       7.366   0.959  -1.902  0.00  0.00    +0.000 OA
BRANCH  14  15
ATOM     15  C   UNL     1       7.275  -0.379  -2.237  0.00  0.00    +0.000 C 
ATOM     16  O   UNL     1       6.356  -1.125  -1.906  0.00  0.00    +0.000 OA
BRANCH  15  17
ATOM     17  O   UNL     1       8.331  -0.730  -3.013  0.00  0.00    +0.000 OA
BRANCH  17  18
ATOM     18  C   UNL     1       8.449  -2.115  -3.422  0.00  0.00    +0.000 C 
ATOM     19  C   UNL     1       7.321  -2.549  -4.358  0.00  0.00    +0.000 C 
ATOM     20  C   UNL     1       9.777  -2.257  -4.168  0.00  0.00    +0.000 C 
ENDBRANCH  17  18
ENDBRANCH  15  17
ENDBRANCH  14  15
ENDBRANCH  13  14
ENDBRANCH  12  13
ENDBRANCH   1  12
BRANCH   1  21
ATOM     21  C   UNL     1       3.904   1.401   0.013  0.00  0.00    +0.000 C 
BRANCH  21  22
ATOM     22  O   UNL     1       2.469   1.375   0.086  0.00  0.00    +0.000 OA
BRANCH  22  23
ATOM     23  C   UNL     1       1.981   0.013  -0.014  0.00  0.00    +0.000 C 
ATOM     24  C   UNL     1       2.436  -0.778   1.216  0.00  0.00    +0.000 C 
BRANCH  23  25
ATOM     25  C   UNL     1       2.407  -0.674  -1.334  0.00  0.00    +0.000 C 
BRANCH  25  26
ATOM     26  N   UNL     1       1.949  -2.030  -1.451  0.00  0.00    +0.000 N 
ATOM     27  C   UNL     1       2.742  -3.139  -1.330  0.00  0.00    +0.000 A 
ATOM     28  N   UNL     1       2.037  -4.244  -1.405  0.00  0.00    +0.000 NA
ATOM     29  C   UNL     1       0.735  -3.814  -1.580  0.00  0.00    +0.000 A 
ATOM     30  C   UNL     1      -0.473  -4.506  -1.723  0.00  0.00    +0.000 A 
ATOM     31  N   UNL     1      -1.613  -3.792  -1.871  0.00  0.00    +0.000 NA
ATOM     32  C   UNL     1      -1.531  -2.441  -1.868  0.00  0.00    +0.000 A 
ATOM     33  N   UNL     1      -0.432  -1.669  -1.741  0.00  0.00    +0.000 NA
ATOM     34  C   UNL     1       0.662  -2.434  -1.609  0.00  0.00    +0.000 A 
BRANCH  30  35
ATOM     35  N   UNL     1      -0.531  -5.879  -1.719  0.00  0.00    +0.000 N 
ATOM     36  H   UNL     1       0.332  -6.396  -1.619  0.00  0.00    +0.000 HD
ATOM     37  H   UNL     1      -1.421  -6.329  -1.849  0.00  0.00    +0.000 HD
ENDBRANCH  30  35
ENDBRANCH  25  26
ENDBRANCH  23  25
ENDBRANCH  22  23
ENDBRANCH  21  22
ENDBRANCH   1  21
TORSDOF 18
