REMARK  Name = Tepotinib
REMARK  9 active torsions:
REMARK  status: ('A' for Active; 'I' for Inactive)
REMARK    1  A    between atoms: C_1  and  N_2
REMARK    2  A    between atoms: C_5  and  C_6
REMARK    3  A    between atoms: C_6  and  O_7
REMARK    4  A    between atoms: O_7  and  C_8
REMARK    5  A    between atoms: C_11  and  C_14
REMARK    6  A    between atoms: C_16  and  C_17
REMARK    7  A    between atoms: C_17  and  N_18
REMARK    8  A    between atoms: C_20  and  C_25
REMARK    9  A    between atoms: C_27  and  C_31
REMARK                            x       y       z     vdW  Elec       q    Type
REMARK                         _______ _______ _______ _____ _____    ______ ____
ROOT
ATOM      1  C   UNL     1       2.878  -2.107  -7.737  0.00  0.00    +0.000 A 
ATOM      2  C   UNL     1       4.075  -1.870  -8.432  0.00  0.00    +0.000 A 
ATOM      3  C   UNL     1       4.105  -1.949  -9.829  0.00  0.00    +0.000 A 
ATOM      4  C   UNL     1       2.986  -2.471 -10.492  0.00  0.00    +0.000 A 
ATOM      5  C   UNL     1       1.794  -2.696  -9.829  0.00  0.00    +0.000 A 
ATOM      6  C   UNL     1       1.740  -2.507  -8.457  0.00  0.00    +0.000 A 
ENDROOT
BRANCH   1  10
ATOM      7  C   UNL     1       2.533  -1.381  -3.658  0.00  0.00    +0.000 A 
ATOM      8  C   UNL     1       2.895  -0.401  -4.554  0.00  0.00    +0.000 A 
ATOM      9  N   UNL     1       3.035  -0.611  -5.876  0.00  0.00    +0.000 NA
ATOM     10  C   UNL     1       2.780  -1.863  -6.305  0.00  0.00    +0.000 A 
ATOM     11  N   UNL     1       2.393  -2.890  -5.527  0.00  0.00    +0.000 NA
ATOM     12  C   UNL     1       2.304  -2.623  -4.210  0.00  0.00    +0.000 A 
BRANCH   7  13
ATOM     13  O   UNL     1       2.482  -1.239  -2.310  0.00  0.00    +0.000 OA
BRANCH  13  14
ATOM     14  C   UNL     1       1.875  -0.024  -1.867  0.00  0.00    +0.000 C 
BRANCH  14  19
ATOM     15  C   UNL     1      -2.396   0.009  -0.110  0.00  0.00    +0.000 C 
ATOM     16  N   UNL     1      -0.996   0.006   0.314  0.00  0.00    +0.000 NA
ATOM     17  C   UNL     1      -0.330   1.223  -0.172  0.00  0.00    +0.000 C 
ATOM     18  C   UNL     1       1.153   1.236   0.206  0.00  0.00    +0.000 C 
ATOM     19  C   UNL     1       1.857  -0.017  -0.326  0.00  0.00    +0.000 C 
ATOM     20  C   UNL     1       1.134  -1.253   0.224  0.00  0.00    +0.000 C 
ATOM     21  C   UNL     1      -0.344  -1.224  -0.165  0.00  0.00    +0.000 C 
ENDBRANCH  14  19
ENDBRANCH  13  14
ENDBRANCH   7  13
ENDBRANCH   1  10
BRANCH   3  22
ATOM     22  C   UNL     1       5.270  -1.353 -10.594  0.00  0.00    +0.000 C 
BRANCH  22  23
ATOM     23  N   UNL     1       5.085  -1.356 -12.049  0.00  0.00    +0.000 N 
ATOM     24  N   UNL     1       3.955  -0.711 -12.573  0.00  0.00    +0.000 NA
ATOM     25  C   UNL     1       3.542  -1.108 -13.739  0.00  0.00    +0.000 A 
ATOM     26  C   UNL     1       4.262  -2.096 -14.577  0.00  0.00    +0.000 A 
ATOM     27  C   UNL     1       5.522  -2.346 -14.211  0.00  0.00    +0.000 A 
ATOM     28  C   UNL     1       5.919  -2.156 -12.805  0.00  0.00    +0.000 A 
ATOM     29  O   UNL     1       6.898  -2.766 -12.385  0.00  0.00    +0.000 OA
BRANCH  25  30
ATOM     30  C   UNL     1       2.340  -0.485 -14.370  0.00  0.00    +0.000 A 
ATOM     31  C   UNL     1       1.264  -1.247 -14.849  0.00  0.00    +0.000 A 
ATOM     32  C   UNL     1       0.239  -0.624 -15.584  0.00  0.00    +0.000 A 
ATOM     33  C   UNL     1       0.228   0.769 -15.728  0.00  0.00    +0.000 A 
ATOM     34  C   UNL     1       1.287   1.527 -15.230  0.00  0.00    +0.000 A 
ATOM     35  C   UNL     1       2.345   0.901 -14.563  0.00  0.00    +0.000 A 
BRANCH  32  36
ATOM     36  C   UNL     1      -0.735  -1.402 -16.286  0.00  0.00    +0.000 C 
ATOM     37  N   UNL     1      -1.489  -2.024 -16.927  0.00  0.00    +0.000 NA
ENDBRANCH  32  36
ENDBRANCH  25  30
ENDBRANCH  22  23
ENDBRANCH   3  22
TORSDOF 8
