REMARK  Name = Terazosin
REMARK  5 active torsions:
REMARK  status: ('A' for Active; 'I' for Inactive)
REMARK    1  A    between atoms: C_1  and  O_2
REMARK    2  A    between atoms: O_2  and  C_3
REMARK    3  A    between atoms: C_4  and  O_5
REMARK    4  A    between atoms: O_5  and  C_6
REMARK    5  A    between atoms: C_22  and  C_24
REMARK                            x       y       z     vdW  Elec       q    Type
REMARK                         _______ _______ _______ _____ _____    ______ ____
ROOT
ATOM      1  C   UNL     1       3.082  -0.415  -1.189  0.00  0.00    +0.000 A 
ATOM      2  C   UNL     1       2.724  -0.011  -2.477  0.00  0.00    +0.000 A 
ATOM      3  C   UNL     1       3.420  -0.575  -3.543  0.00  0.00    +0.000 A 
ATOM      4  C   UNL     1       4.483  -1.512  -3.352  0.00  0.00    +0.000 A 
ATOM      5  C   UNL     1       5.234  -2.085  -4.386  0.00  0.00    +0.000 A 
ATOM      6  N   UNL     1       4.915  -1.860  -5.714  0.00  0.00    +0.000 N 
ATOM      7  N   UNL     1       6.250  -2.945  -4.179  0.00  0.00    +0.000 NA
ATOM      8  C   UNL     1       6.508  -3.331  -2.921  0.00  0.00    +0.000 A 
ATOM      9  N   UNL     1       5.830  -2.836  -1.865  0.00  0.00    +0.000 NA
ATOM     10  C   UNL     1       4.855  -1.913  -2.072  0.00  0.00    +0.000 A 
ATOM     11  C   UNL     1       4.150  -1.327  -1.008  0.00  0.00    +0.000 A 
ATOM     12  N   UNL     1       7.434  -4.331  -2.741  0.00  0.00    +0.000 N 
ATOM     13  C   UNL     1       7.173  -5.483  -1.877  0.00  0.00    +0.000 C 
ATOM     14  C   UNL     1       7.593  -6.788  -2.616  0.00  0.00    +0.000 C 
ATOM     15  N   UNL     1       8.984  -6.708  -3.092  0.00  0.00    +0.000 N 
ATOM     16  C   UNL     1       9.213  -5.532  -3.944  0.00  0.00    +0.000 C 
ATOM     17  C   UNL     1       8.806  -4.224  -3.228  0.00  0.00    +0.000 C 
ATOM     18  C   UNL     1       9.909  -7.688  -2.753  0.00  0.00    +0.000 C 
ATOM     19  O   UNL     1       9.594  -8.641  -2.021  0.00  0.00    +0.000 OA
ATOM     20  H   UNL     1       4.272  -1.149  -6.012  0.00  0.00    +0.000 HD
ATOM     21  H   UNL     1       5.524  -2.297  -6.390  0.00  0.00    +0.000 HD
ENDROOT
BRANCH  18  22
ATOM     22  C   UNL     1      11.376  -7.583  -3.246  0.00  0.00    +0.000 C 
ATOM     23  C   UNL     1      12.118  -6.372  -2.697  0.00  0.00    +0.000 C 
ATOM     24  C   UNL     1      13.063  -6.004  -3.815  0.00  0.00    +0.000 C 
ATOM     25  C   UNL     1      12.372  -6.499  -5.066  0.00  0.00    +0.000 C 
ATOM     26  O   UNL     1      11.496  -7.559  -4.676  0.00  0.00    +0.000 OA
ENDBRANCH  18  22
BRANCH   1  28
ATOM     27  C   UNL     1       1.091   0.064   0.003  0.00  0.00    +0.000 C 
ATOM     28  O   UNL     1       2.520   0.078  -0.033  0.00  0.00    +0.000 OA
ENDBRANCH   1  28
BRANCH   2  29
ATOM     29  O   UNL     1       1.757   0.945  -2.623  0.00  0.00    +0.000 OA
ATOM     30  C   UNL     1       1.341   1.315  -3.933  0.00  0.00    +0.000 C 
ENDBRANCH   2  29
TORSDOF 3
