REMARK  Name = Terbutaline
REMARK  10 active torsions:
REMARK  status: ('A' for Active; 'I' for Inactive)
REMARK    1  A    between atoms: C_1  and  C_2
REMARK    2  A    between atoms: C_2  and  C_3
REMARK    3  A    between atoms: C_2  and  C_4
REMARK    4  A    between atoms: C_2  and  N_5
REMARK    5  A    between atoms: N_5  and  C_6
REMARK    6  A    between atoms: C_6  and  C_7
REMARK    7  A    between atoms: C_7  and  O_8
REMARK    8  A    between atoms: C_7  and  C_9
REMARK    9  A    between atoms: C_11  and  O_12
REMARK   10  A    between atoms: C_14  and  O_15
REMARK                            x       y       z     vdW  Elec       q    Type
REMARK                         _______ _______ _______ _____ _____    ______ ____
ROOT
ATOM      1  C   UNL     1       5.057  -1.601  -2.477  0.00  0.00    +0.000 C 
ENDROOT
BRANCH   1   2
ATOM      2  C   UNL     1       6.574  -1.589  -2.481  0.00  0.00    +0.000 A 
ATOM      3  C   UNL     1       7.290  -2.649  -1.894  0.00  0.00    +0.000 A 
ATOM      4  C   UNL     1       8.682  -2.619  -1.868  0.00  0.00    +0.000 A 
ATOM      5  C   UNL     1       9.391  -1.543  -2.397  0.00  0.00    +0.000 A 
ATOM      6  C   UNL     1       8.682  -0.482  -2.946  0.00  0.00    +0.000 A 
ATOM      7  C   UNL     1       7.296  -0.495  -2.986  0.00  0.00    +0.000 A 
BRANCH   4   8
ATOM      8  O   UNL     1       9.407  -3.639  -1.324  0.00  0.00    +0.000 OA
ATOM      9  H   UNL     1       8.797  -4.337  -1.032  0.00  0.00    +0.000 HD
ENDBRANCH   4   8
BRANCH   6  10
ATOM     10  O   UNL     1       9.312   0.613  -3.463  0.00  0.00    +0.000 OA
ATOM     11  H   UNL     1      10.270   0.476  -3.402  0.00  0.00    +0.000 HD
ENDBRANCH   6  10
ENDBRANCH   1   2
BRANCH   1  12
ATOM     12  O   UNL     1       4.538  -0.987  -3.661  0.00  0.00    +0.000 OA
ATOM     13  H   UNL     1       4.750  -0.042  -3.617  0.00  0.00    +0.000 HD
ENDBRANCH   1  12
BRANCH   1  14
ATOM     14  C   UNL     1       4.555  -0.857  -1.224  0.00  0.00    +0.000 C 
BRANCH  14  15
ATOM     15  N   UNL     1       3.089  -0.804  -1.132  0.00  0.00    +0.000 NA
ATOM     16  H   UNL     1       2.718  -0.409  -1.999  0.00  0.00    +0.000 HD
BRANCH  15  18
ATOM     17  C   UNL     1       1.046  -0.095  -0.008  0.00  0.00    +0.000 C 
ATOM     18  C   UNL     1       2.585  -0.064   0.040  0.00  0.00    +0.000 C 
ATOM     19  C   UNL     1       3.039   1.406   0.020  0.00  0.00    +0.000 C 
ATOM     20  C   UNL     1       3.038  -0.750   1.341  0.00  0.00    +0.000 C 
ENDBRANCH  15  18
ENDBRANCH  14  15
ENDBRANCH   1  14
TORSDOF 7
