REMARK  Name = Terbinafine
REMARK  10 active torsions:
REMARK  status: ('A' for Active; 'I' for Inactive)
REMARK    1  A    between atoms: C_1  and  N_2
REMARK    2  A    between atoms: N_2  and  C_3
REMARK    3  A    between atoms: N_2  and  C_12
REMARK    4  A    between atoms: C_3  and  C_4
REMARK    5  A    between atoms: C_5  and  C_6
REMARK    6  A    between atoms: C_7  and  C_8
REMARK    7  A    between atoms: C_8  and  C_9
REMARK    8  A    between atoms: C_8  and  C_10
REMARK    9  A    between atoms: C_8  and  C_11
REMARK   10  A    between atoms: C_12  and  C_13
REMARK                            x       y       z     vdW  Elec       q    Type
REMARK                         _______ _______ _______ _____ _____    ______ ____
ROOT
ATOM      1  C   UNL     1       0.878  -0.032   0.096  0.00  0.00    +0.000 C 
ATOM      2  N   UNL     1       2.345  -0.047   0.036  0.00  0.00    +0.000 NA
ENDROOT
BRANCH   2   3
ATOM      3  C   UNL     1       2.834   0.719  -1.121  0.00  0.00    +0.000 C 
BRANCH   3   4
ATOM      4  C   UNL     1       2.403   0.116  -2.416  0.00  0.00    +0.000 C 
ATOM      5  C   UNL     1       2.701   0.683  -3.585  0.00  0.00    +0.000 C 
BRANCH   5   6
ATOM      6  C   UNL     1       2.194   0.060  -4.876  0.00  0.00    +0.000 C 
ATOM      7  C   UNL     1       1.759  -0.474  -5.983  0.00  0.00    +0.000 C 
BRANCH   7   8
ATOM      8  C   UNL     1       1.253  -1.096  -7.274  0.00  0.00    +0.000 C 
ATOM      9  C   UNL     1       0.499  -0.034  -8.083  0.00  0.00    +0.000 C 
ATOM     10  C   UNL     1       2.446  -1.616  -8.084  0.00  0.00    +0.000 C 
ATOM     11  C   UNL     1       0.309  -2.257  -6.937  0.00  0.00    +0.000 C 
ENDBRANCH   7   8
ENDBRANCH   5   6
ENDBRANCH   3   4
ENDBRANCH   2   3
BRANCH   2  12
ATOM     12  C   UNL     1       2.869   0.527   1.291  0.00  0.00    +0.000 C 
BRANCH  12  13
ATOM     13  C   UNL     1       4.386   0.589   1.348  0.00  0.00    +0.000 A 
ATOM     14  C   UNL     1       5.090  -0.629   1.276  0.00  0.00    +0.000 A 
ATOM     15  C   UNL     1       6.479  -0.650   1.295  0.00  0.00    +0.000 A 
ATOM     16  C   UNL     1       7.185   0.546   1.385  0.00  0.00    +0.000 A 
ATOM     17  C   UNL     1       6.517   1.780   1.426  0.00  0.00    +0.000 A 
ATOM     18  C   UNL     1       7.247   2.980   1.467  0.00  0.00    +0.000 A 
ATOM     19  C   UNL     1       6.605   4.218   1.488  0.00  0.00    +0.000 A 
ATOM     20  C   UNL     1       5.220   4.274   1.467  0.00  0.00    +0.000 A 
ATOM     21  C   UNL     1       4.482   3.093   1.428  0.00  0.00    +0.000 A 
ATOM     22  C   UNL     1       5.098   1.819   1.408  0.00  0.00    +0.000 A 
ENDBRANCH  12  13
ENDBRANCH   2  12
TORSDOF 6
