REMARK  Name = Terconazole
REMARK  10 active torsions:
REMARK  status: ('A' for Active; 'I' for Inactive)
REMARK    1  A    between atoms: C_1  and  C_2
REMARK    2  A    between atoms: C_2  and  C_3
REMARK    3  A    between atoms: C_2  and  N_4
REMARK    4  A    between atoms: N_7  and  C_10
REMARK    5  A    between atoms: C_13  and  O_14
REMARK    6  A    between atoms: O_14  and  C_15
REMARK    7  A    between atoms: C_15  and  C_16
REMARK    8  A    between atoms: C_19  and  C_20
REMARK    9  A    between atoms: C_19  and  C_27
REMARK   10  A    between atoms: C_20  and  N_21
REMARK                            x       y       z     vdW  Elec       q    Type
REMARK                         _______ _______ _______ _____ _____    ______ ____
ROOT
ATOM      1  C   UNL     1       9.242   8.867   2.484  0.00  0.00    +0.000 C 
ATOM      2  C   UNL     1       8.934  10.228   1.847  0.00  0.00    +0.000 C 
ATOM      3  O   UNL     1       9.522  10.247   0.527  0.00  0.00    +0.000 OA
ATOM      4  C   UNL     1      10.385   9.103   0.448  0.00  0.00    +0.000 C 
ATOM      5  O   UNL     1      10.495   8.570   1.801  0.00  0.00    +0.000 OA
ENDROOT
BRANCH   4   6
ATOM      6  C   UNL     1      11.831   9.514   0.054  0.00  0.00    +0.000 A 
ATOM      7  C   UNL     1      12.620   8.985  -1.012  0.00  0.00    +0.000 A 
ATOM      8 CL   UNL     1      12.129   7.965  -2.335  0.00  0.00    +0.000 Cl
ATOM      9  C   UNL     1      13.971   9.313  -1.144  0.00  0.00    +0.000 A 
ATOM     10  C   UNL     1      14.550  10.248  -0.311  0.00  0.00    +0.000 A 
ATOM     11 CL   UNL     1      16.173  10.724  -0.603  0.00  0.00    +0.000 Cl
ATOM     12  C   UNL     1      13.809  10.823   0.710  0.00  0.00    +0.000 A 
ATOM     13  C   UNL     1      12.472  10.452   0.900  0.00  0.00    +0.000 A 
ENDBRANCH   4   6
BRANCH   1  14
ATOM     14  C   UNL     1       8.364   7.634   2.181  0.00  0.00    +0.000 C 
BRANCH  14  15
ATOM     15  O   UNL     1       7.376   7.131   3.077  0.00  0.00    +0.000 OA
BRANCH  15  19
ATOM     16  C   UNL     1       5.076   3.819   1.671  0.00  0.00    +0.000 A 
ATOM     17  C   UNL     1       4.672   4.657   2.711  0.00  0.00    +0.000 A 
ATOM     18  C   UNL     1       5.434   5.781   3.101  0.00  0.00    +0.000 A 
ATOM     19  C   UNL     1       6.703   6.013   2.581  0.00  0.00    +0.000 A 
ATOM     20  C   UNL     1       7.173   5.089   1.641  0.00  0.00    +0.000 A 
ATOM     21  C   UNL     1       6.334   4.078   1.132  0.00  0.00    +0.000 A 
BRANCH  16  25
ATOM     22  N   UNL     1       3.128   1.067  -0.885  0.00  0.00    +0.000 NA
ATOM     23  C   UNL     1       2.610   2.435  -0.586  0.00  0.00    +0.000 C 
ATOM     24  C   UNL     1       2.882   2.923   0.868  0.00  0.00    +0.000 C 
ATOM     25  N   UNL     1       4.309   2.774   1.206  0.00  0.00    +0.000 N 
ATOM     26  C   UNL     1       4.955   1.514   0.812  0.00  0.00    +0.000 C 
ATOM     27  C   UNL     1       4.598   1.138  -0.643  0.00  0.00    +0.000 C 
BRANCH  22  29
ATOM     28  C   UNL     1       0.986   0.019  -0.043  0.00  0.00    +0.000 C 
ATOM     29  C   UNL     1       2.516   0.012  -0.034  0.00  0.00    +0.000 C 
ATOM     30  C   UNL     1       3.013  -1.381  -0.448  0.00  0.00    +0.000 C 
ENDBRANCH  22  29
ENDBRANCH  16  25
ENDBRANCH  15  19
ENDBRANCH  14  15
ENDBRANCH   1  14
BRANCH   4  31
ATOM     31  C   UNL     1       9.814   8.128  -0.617  0.00  0.00    +0.000 C 
BRANCH  31  32
ATOM     32  N   UNL     1       8.411   7.835  -0.755  0.00  0.00    +0.000 N 
ATOM     33  C   UNL     1       7.362   8.702  -0.734  0.00  0.00    +0.000 A 
ATOM     34  N   UNL     1       6.240   8.005  -0.629  0.00  0.00    +0.000 NA
ATOM     35  C   UNL     1       6.667   6.725  -0.770  0.00  0.00    +0.000 A 
ATOM     36  N   UNL     1       7.993   6.568  -0.906  0.00  0.00    +0.000 NA
ENDBRANCH  31  32
ENDBRANCH   4  31
TORSDOF 8
