REMARK  Name = Terfenadine
REMARK  14 active torsions:
REMARK  status: ('A' for Active; 'I' for Inactive)
REMARK    1  A    between atoms: C_1  and  C_2
REMARK    2  A    between atoms: C_2  and  C_3
REMARK    3  A    between atoms: C_2  and  C_4
REMARK    4  A    between atoms: C_2  and  C_5
REMARK    5  A    between atoms: C_8  and  C_11
REMARK    6  A    between atoms: C_11  and  O_12
REMARK    7  A    between atoms: C_11  and  C_13
REMARK    8  A    between atoms: C_13  and  C_14
REMARK    9  A    between atoms: C_14  and  C_15
REMARK   10  A    between atoms: C_15  and  N_16
REMARK   11  A    between atoms: C_19  and  C_22
REMARK   12  A    between atoms: C_22  and  O_23
REMARK   13  A    between atoms: C_22  and  C_24
REMARK   14  A    between atoms: C_22  and  C_30
REMARK                            x       y       z     vdW  Elec       q    Type
REMARK                         _______ _______ _______ _____ _____    ______ ____
ROOT
ATOM      1  N   UNL     1       6.330  -2.747  -9.117  0.00  0.00    +0.000 NA
ATOM      2  C   UNL     1       6.430  -4.200  -8.913  0.00  0.00    +0.000 C 
ATOM      3  C   UNL     1       6.619  -4.958 -10.206  0.00  0.00    +0.000 C 
ATOM      4  C   UNL     1       5.439  -4.698 -11.158  0.00  0.00    +0.000 C 
ATOM      5  C   UNL     1       5.473  -3.170 -11.420  0.00  0.00    +0.000 C 
ATOM      6  C   UNL     1       5.373  -2.338 -10.147  0.00  0.00    +0.000 C 
ENDROOT
BRANCH   1   7
ATOM      7  C   UNL     1       6.037  -2.044  -7.863  0.00  0.00    +0.000 C 
BRANCH   7   8
ATOM      8  C   UNL     1       5.230  -2.889  -6.882  0.00  0.00    +0.000 C 
BRANCH   8   9
ATOM      9  C   UNL     1       4.914  -2.107  -5.653  0.00  0.00    +0.000 C 
BRANCH   9  10
ATOM     10  C   UNL     1       4.186  -2.985  -4.642  0.00  0.00    +0.000 C 
BRANCH  10  14
ATOM     11  C   UNL     1       2.984  -0.699  -1.204  0.00  0.00    +0.000 A 
ATOM     12  C   UNL     1       2.653  -2.063  -1.325  0.00  0.00    +0.000 A 
ATOM     13  C   UNL     1       3.097  -2.816  -2.405  0.00  0.00    +0.000 A 
ATOM     14  C   UNL     1       3.835  -2.201  -3.412  0.00  0.00    +0.000 A 
ATOM     15  C   UNL     1       4.192  -0.855  -3.278  0.00  0.00    +0.000 A 
ATOM     16  C   UNL     1       3.771  -0.115  -2.193  0.00  0.00    +0.000 A 
BRANCH  11  18
ATOM     17  C   UNL     1       0.959   0.125  -0.014  0.00  0.00    +0.000 C 
ATOM     18  C   UNL     1       2.497   0.112  -0.009  0.00  0.00    +0.000 C 
ATOM     19  C   UNL     1       2.992   1.575  -0.038  0.00  0.00    +0.000 C 
ATOM     20  C   UNL     1       3.030  -0.545   1.276  0.00  0.00    +0.000 C 
ENDBRANCH  11  18
ENDBRANCH  10  14
BRANCH  10  21
ATOM     21  O   UNL     1       2.980  -3.475  -5.230  0.00  0.00    +0.000 OA
ATOM     22  H   UNL     1       2.400  -2.708  -5.371  0.00  0.00    +0.000 HD
ENDBRANCH  10  21
ENDBRANCH   9  10
ENDBRANCH   8   9
ENDBRANCH   7   8
ENDBRANCH   1   7
BRANCH   4  23
ATOM     23  C   UNL     1       3.995  -5.236 -10.726  0.00  0.00    +0.000 C 
BRANCH  23  24
ATOM     24  C   UNL     1       2.988  -4.802 -11.822  0.00  0.00    +0.000 A 
ATOM     25  C   UNL     1       1.862  -4.000 -11.556  0.00  0.00    +0.000 A 
ATOM     26  C   UNL     1       0.899  -3.777 -12.538  0.00  0.00    +0.000 A 
ATOM     27  C   UNL     1       1.050  -4.327 -13.807  0.00  0.00    +0.000 A 
ATOM     28  C   UNL     1       2.185  -5.072 -14.112  0.00  0.00    +0.000 A 
ATOM     29  C   UNL     1       3.157  -5.281 -13.139  0.00  0.00    +0.000 A 
ENDBRANCH  23  24
BRANCH  23  30
ATOM     30  C   UNL     1       3.946  -6.755 -10.436  0.00  0.00    +0.000 A 
ATOM     31  C   UNL     1       3.066  -7.630 -11.093  0.00  0.00    +0.000 A 
ATOM     32  C   UNL     1       2.993  -8.985 -10.759  0.00  0.00    +0.000 A 
ATOM     33  C   UNL     1       3.829  -9.510  -9.785  0.00  0.00    +0.000 A 
ATOM     34  C   UNL     1       4.687  -8.674  -9.092  0.00  0.00    +0.000 A 
ATOM     35  C   UNL     1       4.696  -7.309  -9.381  0.00  0.00    +0.000 A 
ENDBRANCH  23  30
BRANCH  23  36
ATOM     36  O   UNL     1       3.579  -4.717  -9.462  0.00  0.00    +0.000 OA
ATOM     37  H   UNL     1       3.293  -3.804  -9.563  0.00  0.00    +0.000 HD
ENDBRANCH  23  36
ENDBRANCH   4  23
TORSDOF 11
