REMARK  Name = Terizidone
REMARK  4 active torsions:
REMARK  status: ('A' for Active; 'I' for Inactive)
REMARK    1  A    between atoms: C_6  and  N_7
REMARK    2  A    between atoms: C_8  and  C_9
REMARK    3  A    between atoms: C_12  and  C_13
REMARK    4  A    between atoms: N_14  and  C_15
REMARK                            x       y       z     vdW  Elec       q    Type
REMARK                         _______ _______ _______ _____ _____    ______ ____
ROOT
ATOM      1  C   UNL     1       1.025  -3.871  -1.601  0.00  0.00    +0.000 A 
ATOM      2  C   UNL     1      -0.314  -3.920  -1.995  0.00  0.00    +0.000 A 
ATOM      3  C   UNL     1      -0.741  -4.962  -2.830  0.00  0.00    +0.000 A 
ATOM      4  C   UNL     1       0.186  -5.903  -3.301  0.00  0.00    +0.000 A 
ATOM      5  C   UNL     1       1.514  -5.864  -2.876  0.00  0.00    +0.000 A 
ATOM      6  C   UNL     1       1.931  -4.848  -2.024  0.00  0.00    +0.000 A 
ENDROOT
BRANCH   1   8
ATOM      7  N   UNL     1       2.684  -2.269  -1.007  0.00  0.00    +0.000 NA
ATOM      8  C   UNL     1       1.547  -2.806  -0.726  0.00  0.00    +0.000 C 
BRANCH   7  14
ATOM      9  O   UNL     1       1.171   0.012   0.308  0.00  0.00    +0.000 OA
ATOM     10  C   UNL     1       2.379  -0.047   0.097  0.00  0.00    +0.000 C 
ATOM     11  N   UNL     1       3.231   1.021   0.084  0.00  0.00    +0.000 N 
ATOM     12  O   UNL     1       4.473   0.707  -0.501  0.00  0.00    +0.000 OA
ATOM     13  C   UNL     1       4.543  -0.725  -0.526  0.00  0.00    +0.000 C 
ATOM     14  C   UNL     1       3.207  -1.290  -0.048  0.00  0.00    +0.000 C 
ATOM     15  H   UNL     1       3.016   1.972   0.347  0.00  0.00    +0.000 HD
ENDBRANCH   7  14
ENDBRANCH   1   8
BRANCH   4  16
ATOM     16  C   UNL     1      -0.228  -6.881  -4.329  0.00  0.00    +0.000 C 
ATOM     17  N   UNL     1       0.586  -7.763  -4.784  0.00  0.00    +0.000 NA
BRANCH  17  18
ATOM     18  C   UNL     1       0.173  -8.675  -5.863  0.00  0.00    +0.000 C 
ATOM     19  C   UNL     1       0.752 -10.060  -5.587  0.00  0.00    +0.000 C 
ATOM     20  O   UNL     1      -0.099 -11.000  -6.254  0.00  0.00    +0.000 OA
ATOM     21  N   UNL     1      -1.361 -10.371  -6.293  0.00  0.00    +0.000 N 
ATOM     22  C   UNL     1      -1.287  -9.043  -5.964  0.00  0.00    +0.000 C 
ATOM     23  O   UNL     1      -2.265  -8.312  -5.864  0.00  0.00    +0.000 OA
ATOM     24  H   UNL     1      -2.212 -10.916  -6.313  0.00  0.00    +0.000 HD
ENDBRANCH  17  18
ENDBRANCH   4  16
TORSDOF 4
