REMARK  Name = Teriflunomide
REMARK  6 active torsions:
REMARK  status: ('A' for Active; 'I' for Inactive)
REMARK    1  A    between atoms: C_1  and  C_2
REMARK    2  A    between atoms: C_2  and  O_3
REMARK    3  A    between atoms: C_4  and  C_5
REMARK    4  A    between atoms: C_4  and  C_7
REMARK    5  A    between atoms: N_9  and  C_10
REMARK    6  A    between atoms: C_13  and  C_16
REMARK                            x       y       z     vdW  Elec       q    Type
REMARK                         _______ _______ _______ _____ _____    ______ ____
ROOT
ATOM      1  C   UNL     1       4.637  -0.520  -1.103  0.00  0.00    +0.000 C 
ATOM      2  O   UNL     1       5.255  -0.080  -0.125  0.00  0.00    +0.000 OA
ATOM      3  N   UNL     1       5.320  -0.968  -2.229  0.00  0.00    +0.000 N 
ATOM      4  H   UNL     1       4.839  -1.127  -3.105  0.00  0.00    +0.000 HD
ENDROOT
BRANCH   3   5
ATOM      5  C   UNL     1       6.743  -1.061  -2.258  0.00  0.00    +0.000 A 
ATOM      6  C   UNL     1       7.450  -0.768  -3.428  0.00  0.00    +0.000 A 
ATOM      7  C   UNL     1       8.851  -0.895  -3.462  0.00  0.00    +0.000 A 
ATOM      8  C   UNL     1       9.569  -1.283  -2.318  0.00  0.00    +0.000 A 
ATOM      9  C   UNL     1       8.854  -1.602  -1.160  0.00  0.00    +0.000 A 
ATOM     10  C   UNL     1       7.461  -1.485  -1.132  0.00  0.00    +0.000 A 
BRANCH   8  11
ATOM     11  C   UNL     1      11.079  -1.295  -2.318  0.00  0.00    +0.000 C 
ATOM     12  F   UNL     1      11.603  -2.147  -3.242  0.00  0.00    +0.000 F 
ATOM     13  F   UNL     1      11.602  -0.069  -2.601  0.00  0.00    +0.000 F 
ATOM     14  F   UNL     1      11.623  -1.660  -1.123  0.00  0.00    +0.000 F 
ENDBRANCH   8  11
ENDBRANCH   3   5
BRANCH   1  17
ATOM     15  C   UNL     1       0.923  -0.013  -0.011  0.00  0.00    +0.000 C 
ATOM     16  C   UNL     1       2.424  -0.037  -0.059  0.00  0.00    +0.000 C 
ATOM     17  C   UNL     1       3.117  -0.518  -1.119  0.00  0.00    +0.000 C 
BRANCH  16  18
ATOM     18  O   UNL     1       3.063   0.468   1.060  0.00  0.00    +0.000 OA
ATOM     19  H   UNL     1       2.439   0.785   1.731  0.00  0.00    +0.000 HD
ENDBRANCH  16  18
BRANCH  17  20
ATOM     20  C   UNL     1       2.357  -1.064  -2.316  0.00  0.00    +0.000 C 
ATOM     21  N   UNL     1       1.726  -1.518  -3.310  0.00  0.00    +0.000 NA
ENDBRANCH  17  20
ENDBRANCH   1  17
TORSDOF 5
