REMARK  Name = Terpin hydrate
REMARK  6 active torsions:
REMARK  status: ('A' for Active; 'I' for Inactive)
REMARK    1  A    between atoms: C_2  and  C_3
REMARK    2  A    between atoms: C_3  and  C_4
REMARK    3  A    between atoms: C_3  and  O_5
REMARK    4  A    between atoms: C_3  and  C_6
REMARK    5  A    between atoms: C_9  and  C_10
REMARK    6  A    between atoms: C_9  and  O_11
REMARK                            x       y       z     vdW  Elec       q    Type
REMARK                         _______ _______ _______ _____ _____    ______ ____
ROOT
ATOM      1  O   HOH     1      -0.068  -1.459  -1.324  0.00  0.00    +0.000 OA
ATOM      2  H   HOH     0       0.782  -1.002  -1.370  0.00  0.00    +0.000 HD
ATOM      3  H   HOH     0      -0.512  -1.052  -0.546  0.00  0.00    +0.000 HD
ENDROOT
TORSDOF 0
REMARK  Name = Terpin hydrate
REMARK  6 active torsions:
REMARK  status: ('A' for Active; 'I' for Inactive)
REMARK    1  A    between atoms: C_2  and  C_3
REMARK    2  A    between atoms: C_3  and  C_4
REMARK    3  A    between atoms: C_3  and  O_5
REMARK    4  A    between atoms: C_3  and  C_6
REMARK    5  A    between atoms: C_9  and  C_10
REMARK    6  A    between atoms: C_9  and  O_11
REMARK                            x       y       z     vdW  Elec       q    Type
REMARK                         _______ _______ _______ _____ _____    ______ ____
ROOT
ATOM      1  C   UNL     2       3.079   1.639   0.214  0.00  0.00    +0.000 C 
ATOM      2  C   UNL     2       3.527   2.536   1.379  0.00  0.00    +0.000 C 
ATOM      3  C   UNL     2       2.757   3.874   1.176  0.00  0.00    +0.000 C 
ATOM      4  C   UNL     2       3.051   4.496  -0.214  0.00  0.00    +0.000 C 
ATOM      5  C   UNL     2       2.236   5.773  -0.414  0.00  0.00    +0.000 C 
ATOM      6  C   UNL     2       2.774   3.516  -1.372  0.00  0.00    +0.000 C 
ATOM      7  C   UNL     2       3.498   2.171  -1.165  0.00  0.00    +0.000 C 
ENDROOT
BRANCH   1   9
ATOM      8  C   UNL     2       1.172   0.214   0.685  0.00  0.00    +0.000 C 
ATOM      9  C   UNL     2       2.682   0.148   0.362  0.00  0.00    +0.000 C 
ATOM     10  C   UNL     2       3.285  -0.730   1.449  0.00  0.00    +0.000 C 
BRANCH   9  11
ATOM     11  O   UNL     2       2.809  -0.512  -0.911  0.00  0.00    +0.000 OA
ATOM     12  H   UNL     2       2.831  -1.469  -0.809  0.00  0.00    +0.000 HD
ENDBRANCH   9  11
ENDBRANCH   1   9
BRANCH   4  13
ATOM     13  O   UNL     2       4.436   4.835  -0.272  0.00  0.00    +0.000 OA
ATOM     14  H   UNL     2       4.638   5.382   0.504  0.00  0.00    +0.000 HD
ENDBRANCH   4  13
TORSDOF 3
