REMARK  Name = Testosterone cypionate
REMARK  7 active torsions:
REMARK  status: ('A' for Active; 'I' for Inactive)
REMARK    1  A    between atoms: C_5  and  O_6
REMARK    2  A    between atoms: O_6  and  C_7
REMARK    3  A    between atoms: C_7  and  C_9
REMARK    4  A    between atoms: C_9  and  C_10
REMARK    5  A    between atoms: C_10  and  C_11
REMARK    6  A    between atoms: C_16  and  C_17
REMARK    7  A    between atoms: C_32  and  C_33
REMARK                            x       y       z     vdW  Elec       q    Type
REMARK                         _______ _______ _______ _____ _____    ______ ____
ROOT
ATOM      1  C   UNL     1       2.066  -0.081  -0.005  0.00  0.00    +0.000 C 
ATOM      2  C   UNL     1       2.572   1.311   0.352  0.00  0.00    +0.000 C 
ATOM      3  C   UNL     1       2.672   1.291   1.891  0.00  0.00    +0.000 C 
ATOM      4  C   UNL     1       2.441  -0.178   2.343  0.00  0.00    +0.000 C 
ATOM      5  C   UNL     1       2.723  -0.988   1.051  0.00  0.00    +0.000 C 
ATOM      6  C   UNL     1       4.252  -1.166   0.880  0.00  0.00    +0.000 C 
ATOM      7  C   UNL     1       2.020  -2.348   0.960  0.00  0.00    +0.000 C 
ATOM      8  C   UNL     1       2.105  -2.968  -0.433  0.00  0.00    +0.000 C 
ATOM      9  C   UNL     1       1.673  -2.028  -1.573  0.00  0.00    +0.000 C 
ATOM     10  C   UNL     1       2.280  -0.598  -1.432  0.00  0.00    +0.000 C 
ATOM     11  C   UNL     1       1.634   0.332  -2.463  0.00  0.00    +0.000 C 
ATOM     12  C   UNL     1       1.750  -0.198  -3.887  0.00  0.00    +0.000 C 
ATOM     13  C   UNL     1       1.345  -1.645  -4.030  0.00  0.00    +0.000 C 
ATOM     14  C   UNL     1       0.534  -2.009  -5.038  0.00  0.00    +0.000 C 
ATOM     15  C   UNL     1       0.283  -3.435  -5.350  0.00  0.00    +0.000 C 
ATOM     16  O   UNL     1      -0.454  -3.730  -6.287  0.00  0.00    +0.000 OA
ATOM     17  C   UNL     1       1.056  -4.466  -4.571  0.00  0.00    +0.000 C 
ATOM     18  C   UNL     1       1.214  -4.007  -3.127  0.00  0.00    +0.000 C 
ATOM     19  C   UNL     1       1.924  -2.627  -3.006  0.00  0.00    +0.000 C 
ATOM     20  C   UNL     1       3.432  -2.821  -3.288  0.00  0.00    +0.000 C 
ENDROOT
BRANCH   4  21
ATOM     21  O   UNL     1       3.309  -0.519   3.443  0.00  0.00    +0.000 OA
BRANCH  21  22
ATOM     22  C   UNL     1       3.056  -1.720   4.041  0.00  0.00    +0.000 C 
ATOM     23  O   UNL     1       2.122  -2.464   3.762  0.00  0.00    +0.000 OA
BRANCH  22  24
ATOM     24  C   UNL     1       4.067  -2.042   5.105  0.00  0.00    +0.000 C 
BRANCH  24  25
ATOM     25  C   UNL     1       3.913  -3.500   5.577  0.00  0.00    +0.000 C 
BRANCH  25  26
ATOM     26  C   UNL     1       4.855  -3.894   6.719  0.00  0.00    +0.000 C 
ATOM     27  C   UNL     1       5.368  -5.331   6.609  0.00  0.00    +0.000 C 
ATOM     28  C   UNL     1       6.578  -5.361   7.538  0.00  0.00    +0.000 C 
ATOM     29  C   UNL     1       7.136  -3.941   7.550  0.00  0.00    +0.000 C 
ATOM     30  C   UNL     1       6.152  -3.093   6.764  0.00  0.00    +0.000 C 
ENDBRANCH  25  26
ENDBRANCH  24  25
ENDBRANCH  22  24
ENDBRANCH  21  22
ENDBRANCH   4  21
TORSDOF 5
