REMARK  Name = Testosterone propionate
REMARK  6 active torsions:
REMARK  status: ('A' for Active; 'I' for Inactive)
REMARK    1  A    between atoms: C_5  and  O_6
REMARK    2  A    between atoms: O_6  and  C_7
REMARK    3  A    between atoms: C_7  and  C_9
REMARK    4  A    between atoms: C_9  and  C_10
REMARK    5  A    between atoms: C_11  and  C_12
REMARK    6  A    between atoms: C_27  and  C_28
REMARK                            x       y       z     vdW  Elec       q    Type
REMARK                         _______ _______ _______ _____ _____    ______ ____
ROOT
ATOM      1  C   UNL     1       2.082   0.070  -0.052  0.00  0.00    +0.000 C 
ATOM      2  C   UNL     1       2.589   1.462   0.305  0.00  0.00    +0.000 C 
ATOM      3  C   UNL     1       2.692   1.441   1.845  0.00  0.00    +0.000 C 
ATOM      4  C   UNL     1       2.471  -0.030   2.301  0.00  0.00    +0.000 C 
ATOM      5  C   UNL     1       2.742  -0.837   1.003  0.00  0.00    +0.000 C 
ATOM      6  C   UNL     1       4.269  -1.015   0.828  0.00  0.00    +0.000 C 
ATOM      7  C   UNL     1       2.036  -2.196   0.911  0.00  0.00    +0.000 C 
ATOM      8  C   UNL     1       2.121  -2.816  -0.483  0.00  0.00    +0.000 C 
ATOM      9  C   UNL     1       1.689  -1.875  -1.623  0.00  0.00    +0.000 C 
ATOM     10  C   UNL     1       2.296  -0.445  -1.481  0.00  0.00    +0.000 C 
ATOM     11  C   UNL     1       1.650   0.485  -2.513  0.00  0.00    +0.000 C 
ATOM     12  C   UNL     1       1.766  -0.045  -3.937  0.00  0.00    +0.000 C 
ATOM     13  C   UNL     1       1.361  -1.492  -4.081  0.00  0.00    +0.000 C 
ATOM     14  C   UNL     1       0.549  -1.856  -5.089  0.00  0.00    +0.000 C 
ATOM     15  C   UNL     1       0.298  -3.282  -5.401  0.00  0.00    +0.000 C 
ATOM     16  O   UNL     1      -0.439  -3.577  -6.338  0.00  0.00    +0.000 OA
ATOM     17  C   UNL     1       1.071  -4.314  -4.622  0.00  0.00    +0.000 C 
ATOM     18  C   UNL     1       1.230  -3.854  -3.178  0.00  0.00    +0.000 C 
ATOM     19  C   UNL     1       1.940  -2.474  -3.057  0.00  0.00    +0.000 C 
ATOM     20  C   UNL     1       3.448  -2.668  -3.339  0.00  0.00    +0.000 C 
ENDROOT
BRANCH   4  21
ATOM     21  O   UNL     1       3.355  -0.371   3.398  0.00  0.00    +0.000 OA
BRANCH  21  22
ATOM     22  C   UNL     1       3.118  -1.576   3.996  0.00  0.00    +0.000 C 
ATOM     23  O   UNL     1       2.179  -2.316   3.719  0.00  0.00    +0.000 OA
BRANCH  22  24
ATOM     24  C   UNL     1       4.127  -1.911   5.070  0.00  0.00    +0.000 C 
ATOM     25  C   UNL     1       3.916  -3.348   5.547  0.00  0.00    +0.000 C 
ENDBRANCH  22  24
ENDBRANCH  21  22
ENDBRANCH   4  21
TORSDOF 3
