REMARK  Name = Testolactone
REMARK  2 active torsions:
REMARK  status: ('A' for Active; 'I' for Inactive)
REMARK    1  A    between atoms: C_11  and  C_12
REMARK    2  A    between atoms: C_17  and  C_18
REMARK                            x       y       z     vdW  Elec       q    Type
REMARK                         _______ _______ _______ _____ _____    ______ ____
ROOT
ATOM      1  C   UNL     1       1.746  -0.223   0.016  0.00  0.00    +0.000 C 
ATOM      2  C   UNL     1       2.536  -1.491  -0.331  0.00  0.00    +0.000 C 
ATOM      3  C   UNL     1       2.231  -2.401   0.791  0.00  0.00    +0.000 C 
ATOM      4  C   UNL     1       3.107  -1.733   1.985  0.00  0.00    +0.000 C 
ATOM      5  C   UNL     1       4.036  -2.325   2.768  0.00  0.00    +0.000 C 
ATOM      6  C   UNL     1       3.476  -3.636   2.634  0.00  0.00    +0.000 C 
ATOM      7  O   UNL     1       3.961  -4.468   1.892  0.00  0.00    +0.000 OA
ATOM      8  C   UNL     1       2.054  -3.503   3.408  0.00  0.00    +0.000 C 
ATOM      9  C   UNL     1       1.479  -2.166   3.375  0.00  0.00    +0.000 C 
ATOM     10  C   UNL     1       2.238  -0.799   2.753  0.00  0.00    +0.000 C 
ATOM     11  C   UNL     1       2.732  -0.073   4.016  0.00  0.00    +0.000 C 
ATOM     12  C   UNL     1       2.374   0.319   1.542  0.00  0.00    +0.000 C 
ATOM     13  C   UNL     1       2.080   1.867   1.831  0.00  0.00    +0.000 C 
ATOM     14  C   UNL     1       2.793   2.984   0.801  0.00  0.00    +0.000 C 
ATOM     15  C   UNL     1       2.063   2.712  -0.857  0.00  0.00    +0.000 C 
ATOM     16  C   UNL     1       2.676   3.521  -2.050  0.00  0.00    +0.000 C 
ATOM     17  O   UNL     1       1.121   3.510   0.019  0.00  0.00    +0.000 OA
ATOM     18  C   UNL     1       0.182   3.715  -0.820  0.00  0.00    +0.000 C 
ATOM     19  O   UNL     1       0.151   4.702  -1.512  0.00  0.00    +0.000 OA
ATOM     20  C   UNL     1       0.244   2.176  -0.867  0.00  0.00    +0.000 C 
ATOM     21  C   UNL     1       2.250   1.628  -0.714  0.00  0.00    +0.000 C 
ATOM     22  C   UNL     1       1.518   0.801  -1.363  0.00  0.00    +0.000 C 
ENDROOT
TORSDOF 0
