REMARK  Name = Testosterone enanthate
REMARK  10 active torsions:
REMARK  status: ('A' for Active; 'I' for Inactive)
REMARK    1  A    between atoms: C_5  and  O_6
REMARK    2  A    between atoms: O_6  and  C_7
REMARK    3  A    between atoms: C_7  and  C_9
REMARK    4  A    between atoms: C_9  and  C_10
REMARK    5  A    between atoms: C_10  and  C_11
REMARK    6  A    between atoms: C_11  and  C_12
REMARK    7  A    between atoms: C_12  and  C_13
REMARK    8  A    between atoms: C_13  and  C_14
REMARK    9  A    between atoms: C_15  and  C_16
REMARK   10  A    between atoms: C_31  and  C_32
REMARK                            x       y       z     vdW  Elec       q    Type
REMARK                         _______ _______ _______ _____ _____    ______ ____
ROOT
ATOM      1  C   UNL     1       2.059  -0.084   0.025  0.00  0.00    +0.000 C 
ATOM      2  C   UNL     1       2.566   1.308   0.381  0.00  0.00    +0.000 C 
ATOM      3  C   UNL     1       2.668   1.288   1.921  0.00  0.00    +0.000 C 
ATOM      4  C   UNL     1       2.447  -0.183   2.377  0.00  0.00    +0.000 C 
ATOM      5  C   UNL     1       2.719  -0.991   1.080  0.00  0.00    +0.000 C 
ATOM      6  C   UNL     1       4.247  -1.169   0.905  0.00  0.00    +0.000 C 
ATOM      7  C   UNL     1       2.014  -2.350   0.988  0.00  0.00    +0.000 C 
ATOM      8  C   UNL     1       2.099  -2.970  -0.405  0.00  0.00    +0.000 C 
ATOM      9  C   UNL     1       1.666  -2.030  -1.546  0.00  0.00    +0.000 C 
ATOM     10  C   UNL     1       2.273  -0.600  -1.404  0.00  0.00    +0.000 C 
ATOM     11  C   UNL     1       1.627   0.330  -2.435  0.00  0.00    +0.000 C 
ATOM     12  C   UNL     1       1.743  -0.200  -3.860  0.00  0.00    +0.000 C 
ATOM     13  C   UNL     1       1.338  -1.647  -4.003  0.00  0.00    +0.000 C 
ATOM     14  C   UNL     1       0.527  -2.011  -5.012  0.00  0.00    +0.000 C 
ATOM     15  C   UNL     1       0.276  -3.437  -5.323  0.00  0.00    +0.000 C 
ATOM     16  O   UNL     1      -0.461  -3.732  -6.260  0.00  0.00    +0.000 OA
ATOM     17  C   UNL     1       1.049  -4.468  -4.545  0.00  0.00    +0.000 C 
ATOM     18  C   UNL     1       1.207  -4.009  -3.101  0.00  0.00    +0.000 C 
ATOM     19  C   UNL     1       1.917  -2.629  -2.979  0.00  0.00    +0.000 C 
ATOM     20  C   UNL     1       3.425  -2.823  -3.261  0.00  0.00    +0.000 C 
ENDROOT
BRANCH   4  21
ATOM     21  O   UNL     1       3.331  -0.521   3.472  0.00  0.00    +0.000 OA
BRANCH  21  22
ATOM     22  C   UNL     1       3.094  -1.725   4.070  0.00  0.00    +0.000 C 
ATOM     23  O   UNL     1       2.156  -2.466   3.791  0.00  0.00    +0.000 OA
BRANCH  22  24
ATOM     24  C   UNL     1       4.104  -2.057   5.144  0.00  0.00    +0.000 C 
BRANCH  24  25
ATOM     25  C   UNL     1       3.884  -3.502   5.615  0.00  0.00    +0.000 C 
BRANCH  25  26
ATOM     26  C   UNL     1       4.804  -3.887   6.765  0.00  0.00    +0.000 C 
BRANCH  26  27
ATOM     27  C   UNL     1       4.535  -5.324   7.210  0.00  0.00    +0.000 C 
BRANCH  27  28
ATOM     28  C   UNL     1       5.452  -5.712   8.365  0.00  0.00    +0.000 C 
ATOM     29  C   UNL     1       5.187  -7.138   8.809  0.00  0.00    +0.000 C 
ENDBRANCH  27  28
ENDBRANCH  26  27
ENDBRANCH  25  26
ENDBRANCH  24  25
ENDBRANCH  22  24
ENDBRANCH  21  22
ENDBRANCH   4  21
TORSDOF 7
