REMARK  Name = Testosterone
REMARK  3 active torsions:
REMARK  status: ('A' for Active; 'I' for Inactive)
REMARK    1  A    between atoms: C_5  and  O_6
REMARK    2  A    between atoms: C_7  and  C_8
REMARK    3  A    between atoms: C_23  and  C_24
REMARK                            x       y       z     vdW  Elec       q    Type
REMARK                         _______ _______ _______ _____ _____    ______ ____
ROOT
ATOM      1  C   UNL     1       1.728  -0.002  -0.100  0.00  0.00    +0.000 C 
ATOM      2  C   UNL     1       2.171   0.006  -1.452  0.00  0.00    +0.000 C 
ATOM      3  C   UNL     1       3.334  -0.266  -0.553  0.00  0.00    +0.000 C 
ATOM      4  C   UNL     1       2.714  -0.716   1.362  0.00  0.00    +0.000 C 
ATOM      5  C   UNL     1       2.653  -1.562   0.274  0.00  0.00    +0.000 C 
ATOM      6  C   UNL     1       1.937  -2.792  -0.064  0.00  0.00    +0.000 C 
ATOM      7  C   UNL     1       4.477  -1.540   0.764  0.00  0.00    +0.000 C 
ATOM      8  C   UNL     1       4.900   0.024   1.526  0.00  0.00    +0.000 C 
ATOM      9  C   UNL     1       4.234   1.467   0.958  0.00  0.00    +0.000 C 
ATOM     10  C   UNL     1       2.489   1.463   0.757  0.00  0.00    +0.000 C 
ATOM     11  C   UNL     1       2.003   2.691   0.043  0.00  0.00    +0.000 C 
ATOM     12  C   UNL     1       2.544   3.937   0.690  0.00  0.00    +0.000 C 
ATOM     13  C   UNL     1       4.027   3.980   0.928  0.00  0.00    +0.000 C 
ATOM     14  C   UNL     1       4.703   5.106   0.663  0.00  0.00    +0.000 C 
ATOM     15  C   UNL     1       6.035   5.148   1.264  0.00  0.00    +0.000 C 
ATOM     16  O   UNL     1       6.273   5.333   2.456  0.00  0.00    +0.000 OA
ATOM     17  C   UNL     1       7.007   4.453   0.454  0.00  0.00    +0.000 C 
ATOM     18  C   UNL     1       6.469   2.994   1.131  0.00  0.00    +0.000 C 
ATOM     19  C   UNL     1       4.762   2.798   1.567  0.00  0.00    +0.000 C 
ATOM     20  C   UNL     1       4.296   2.705   3.042  0.00  0.00    +0.000 C 
ENDROOT
BRANCH   4  21
ATOM     21  O   UNL     1       2.838  -1.745   2.403  0.00  0.00    +0.000 OA
ATOM     22  H   UNL     1       3.076  -2.652   2.139  0.00  0.00    +0.000 HD
ENDBRANCH   4  21
TORSDOF 1
