REMARK  Name = Testosterone undecanoate
REMARK  14 active torsions:
REMARK  status: ('A' for Active; 'I' for Inactive)
REMARK    1  A    between atoms: C_1  and  C_2
REMARK    2  A    between atoms: C_2  and  C_3
REMARK    3  A    between atoms: C_3  and  C_4
REMARK    4  A    between atoms: C_4  and  C_5
REMARK    5  A    between atoms: C_5  and  C_6
REMARK    6  A    between atoms: C_6  and  C_7
REMARK    7  A    between atoms: C_7  and  C_8
REMARK    8  A    between atoms: C_8  and  C_9
REMARK    9  A    between atoms: C_9  and  C_10
REMARK   10  A    between atoms: C_10  and  C_11
REMARK   11  A    between atoms: C_11  and  O_13
REMARK   12  A    between atoms: O_13  and  C_14
REMARK   13  A    between atoms: C_27  and  C_28
REMARK   14  A    between atoms: C_32  and  C_33
REMARK                            x       y       z     vdW  Elec       q    Type
REMARK                         _______ _______ _______ _____ _____    ______ ____
ROOT
ATOM      1  C   UNL     1      12.931  -7.245   4.741  0.00  0.00    +0.000 C 
ATOM      2  C   UNL     1      12.186  -8.542   4.328  0.00  0.00    +0.000 C 
ATOM      3  C   UNL     1      13.188  -9.689   4.332  0.00  0.00    +0.000 C 
ATOM      4  C   UNL     1      14.420  -9.094   4.989  0.00  0.00    +0.000 C 
ATOM      5  C   UNL     1      15.747  -9.822   4.761  0.00  0.00    +0.000 C 
ATOM      6  C   UNL     1      15.660 -11.281   5.233  0.00  0.00    +0.000 C 
ATOM      7  C   UNL     1      16.982 -12.026   5.105  0.00  0.00    +0.000 C 
ATOM      8  C   UNL     1      18.156 -11.266   5.672  0.00  0.00    +0.000 C 
ATOM      9  C   UNL     1      19.034 -11.910   6.461  0.00  0.00    +0.000 C 
ATOM     10  C   UNL     1      20.312 -11.280   6.863  0.00  0.00    +0.000 C 
ATOM     11  O   UNL     1      21.097 -11.901   7.575  0.00  0.00    +0.000 OA
ATOM     12  C   UNL     1      20.647  -9.939   6.264  0.00  0.00    +0.000 C 
ATOM     13  C   UNL     1      19.379  -9.101   6.134  0.00  0.00    +0.000 C 
ATOM     14  C   UNL     1      18.281  -9.788   5.272  0.00  0.00    +0.000 C 
ATOM     15  C   UNL     1      18.696  -9.708   3.785  0.00  0.00    +0.000 C 
ATOM     16  C   UNL     1      16.885  -9.091   5.528  0.00  0.00    +0.000 C 
ATOM     17  C   UNL     1      16.868  -7.555   5.294  0.00  0.00    +0.000 C 
ATOM     18  C   UNL     1      15.467  -6.900   5.378  0.00  0.00    +0.000 C 
ATOM     19  C   UNL     1      14.428  -7.625   4.505  0.00  0.00    +0.000 C 
ATOM     20  C   UNL     1      14.782  -7.450   3.011  0.00  0.00    +0.000 C 
ENDROOT
BRANCH   1  21
ATOM     21  O   UNL     1      12.462  -6.101   3.983  0.00  0.00    +0.000 OA
BRANCH  21  22
ATOM     22  C   UNL     1      11.103  -5.919   3.985  0.00  0.00    +0.000 C 
ATOM     23  O   UNL     1      10.306  -6.631   4.593  0.00  0.00    +0.000 OA
BRANCH  22  24
ATOM     24  C   UNL     1      10.662  -4.742   3.146  0.00  0.00    +0.000 C 
BRANCH  24  25
ATOM     25  C   UNL     1       9.127  -4.699   3.105  0.00  0.00    +0.000 C 
BRANCH  25  26
ATOM     26  C   UNL     1       8.598  -3.514   2.313  0.00  0.00    +0.000 C 
BRANCH  26  27
ATOM     27  C   UNL     1       7.072  -3.513   2.312  0.00  0.00    +0.000 C 
BRANCH  27  28
ATOM     28  C   UNL     1       6.548  -2.324   1.521  0.00  0.00    +0.000 C 
BRANCH  28  29
ATOM     29  C   UNL     1       5.028  -2.318   1.517  0.00  0.00    +0.000 C 
BRANCH  29  30
ATOM     30  C   UNL     1       4.512  -1.127   0.724  0.00  0.00    +0.000 C 
BRANCH  30  31
ATOM     31  C   UNL     1       2.992  -1.117   0.717  0.00  0.00    +0.000 C 
BRANCH  31  33
ATOM     32  C   UNL     1       0.952   0.079  -0.079  0.00  0.00    +0.000 C 
ATOM     33  C   UNL     1       2.468   0.073  -0.075  0.00  0.00    +0.000 C 
ENDBRANCH  31  33
ENDBRANCH  30  31
ENDBRANCH  29  30
ENDBRANCH  28  29
ENDBRANCH  27  28
ENDBRANCH  26  27
ENDBRANCH  25  26
ENDBRANCH  24  25
ENDBRANCH  22  24
ENDBRANCH  21  22
ENDBRANCH   1  21
TORSDOF 11
