REMARK  Name = Testosterone enantate benzilic acid hydrazone
REMARK  15 active torsions:
REMARK  status: ('A' for Active; 'I' for Inactive)
REMARK    1  A    between atoms: N_2  and  N_3
REMARK    2  A    between atoms: C_7  and  C_8
REMARK    3  A    between atoms: C_18  and  O_19
REMARK    4  A    between atoms: O_19  and  C_20
REMARK    5  A    between atoms: C_20  and  C_22
REMARK    6  A    between atoms: C_22  and  C_23
REMARK    7  A    between atoms: C_23  and  C_24
REMARK    8  A    between atoms: C_24  and  C_25
REMARK    9  A    between atoms: C_25  and  C_26
REMARK   10  A    between atoms: C_26  and  C_27
REMARK   11  A    between atoms: C_28  and  C_29
REMARK   12  A    between atoms: C_35  and  C_37
REMARK   13  A    between atoms: C_37  and  O_38
REMARK   14  A    between atoms: C_37  and  C_39
REMARK   15  A    between atoms: C_37  and  C_45
REMARK                            x       y       z     vdW  Elec       q    Type
REMARK                         _______ _______ _______ _____ _____    ______ ____
ROOT
ATOM      1  N   UNL     1       2.526   0.141  -1.461  0.00  0.00    +0.000 NA
ATOM      2  C   UNL     1       2.333   0.027  -2.792  0.00  0.00    +0.000 C 
ATOM      3  C   UNL     1       2.973   1.160  -3.375  0.00  0.00    +0.000 C 
ATOM      4  C   UNL     1       1.922   1.698  -4.332  0.00  0.00    +0.000 C 
ATOM      5  C   UNL     1       2.709   1.547  -5.570  0.00  0.00    +0.000 C 
ATOM      6  C   UNL     1       4.308   1.476  -5.596  0.00  0.00    +0.000 C 
ATOM      7  C   UNL     1       2.201   0.084  -5.715  0.00  0.00    +0.000 C 
ATOM      8  C   UNL     1       2.515   0.142  -7.427  0.00  0.00    +0.000 C 
ATOM      9  C   UNL     1       2.460   1.602  -8.408  0.00  0.00    +0.000 C 
ATOM     10  C   UNL     1       2.859   2.904  -7.679  0.00  0.00    +0.000 C 
ATOM     11  C   UNL     1       2.490   4.266  -8.326  0.00  0.00    +0.000 C 
ATOM     12  C   UNL     1       3.444   4.437  -9.535  0.00  0.00    +0.000 C 
ATOM     13  C   UNL     1       3.714   5.879  -9.351  0.00  0.00    +0.000 C 
ATOM     14  C   UNL     1       4.164   5.917  -7.638  0.00  0.00    +0.000 C 
ATOM     15  C   UNL     1       2.714   5.561  -7.332  0.00  0.00    +0.000 C 
ATOM     16  C   UNL     1       2.078   6.983  -7.622  0.00  0.00    +0.000 C 
ATOM     17  C   UNL     1       2.119   5.255  -5.995  0.00  0.00    +0.000 C 
ATOM     18  C   UNL     1       2.563   3.967  -5.446  0.00  0.00    +0.000 C 
ATOM     19  C   UNL     1       2.217   2.774  -6.338  0.00  0.00    +0.000 C 
ATOM     20  C   UNL     1       1.749  -0.669  -4.392  0.00  0.00    +0.000 C 
ENDROOT
BRANCH   1  22
ATOM     21  H   UNL     1       1.060  -0.196  -0.109  0.00  0.00    +0.000 HD
ATOM     22  N   UNL     1       2.042  -0.416  -0.293  0.00  0.00    +0.000 N 
ATOM     23  C   UNL     1       2.709  -0.430   0.994  0.00  0.00    +0.000 C 
ATOM     24  O   UNL     1       1.993  -0.522   2.016  0.00  0.00    +0.000 OA
BRANCH  23  25
ATOM     25  C   UNL     1       4.308  -0.348   1.142  0.00  0.00    +0.000 C 
BRANCH  25  26
ATOM     26  C   UNL     1       4.793   1.043   0.734  0.00  0.00    +0.000 A 
ATOM     27  C   UNL     1       6.089   1.253   0.233  0.00  0.00    +0.000 A 
ATOM     28  C   UNL     1       6.555   2.551   0.065  0.00  0.00    +0.000 A 
ATOM     29  C   UNL     1       5.708   3.627   0.323  0.00  0.00    +0.000 A 
ATOM     30  C   UNL     1       4.429   3.441   0.823  0.00  0.00    +0.000 A 
ATOM     31  C   UNL     1       3.984   2.154   1.047  0.00  0.00    +0.000 A 
ENDBRANCH  25  26
BRANCH  25  32
ATOM     32  C   UNL     1       4.812  -0.660   2.606  0.00  0.00    +0.000 A 
ATOM     33  C   UNL     1       4.881  -1.978   3.087  0.00  0.00    +0.000 A 
ATOM     34  C   UNL     1       5.127  -2.242   4.446  0.00  0.00    +0.000 A 
ATOM     35  C   UNL     1       5.429  -1.209   5.332  0.00  0.00    +0.000 A 
ATOM     36  C   UNL     1       5.449   0.098   4.872  0.00  0.00    +0.000 A 
ATOM     37  C   UNL     1       5.143   0.364   3.533  0.00  0.00    +0.000 A 
ENDBRANCH  25  32
BRANCH  25  38
ATOM     38  O   UNL     1       4.856  -1.328   0.257  0.00  0.00    +0.000 OA
ATOM     39  H   UNL     1       4.490  -1.077  -0.611  0.00  0.00    +0.000 HD
ENDBRANCH  25  38
ENDBRANCH  23  25
ENDBRANCH   1  22
BRANCH  14  40
ATOM     40  O   UNL     1       5.172   4.985  -6.993  0.00  0.00    +0.000 OA
BRANCH  40  41
ATOM     41  C   UNL     1       5.867   5.022  -5.755  0.00  0.00    +0.000 C 
ATOM     42  O   UNL     1       6.783   4.226  -5.531  0.00  0.00    +0.000 OA
BRANCH  41  43
ATOM     43  C   UNL     1       5.465   6.014  -4.628  0.00  0.00    +0.000 C 
BRANCH  43  44
ATOM     44  C   UNL     1       6.343   6.043  -3.306  0.00  0.00    +0.000 C 
BRANCH  44  45
ATOM     45  C   UNL     1       5.845   7.107  -2.289  0.00  0.00    +0.000 C 
BRANCH  45  46
ATOM     46  C   UNL     1       6.714   7.203  -1.023  0.00  0.00    +0.000 C 
BRANCH  46  47
ATOM     47  C   UNL     1       6.174   8.240  -0.033  0.00  0.00    +0.000 C 
ATOM     48  C   UNL     1       7.022   8.285   1.231  0.00  0.00    +0.000 C 
ENDBRANCH  46  47
ENDBRANCH  45  46
ENDBRANCH  44  45
ENDBRANCH  43  44
ENDBRANCH  41  43
ENDBRANCH  40  41
ENDBRANCH  14  40
TORSDOF 12
