REMARK  Name = Tetrabenazine
REMARK  8 active torsions:
REMARK  status: ('A' for Active; 'I' for Inactive)
REMARK    1  A    between atoms: C_1  and  O_2
REMARK    2  A    between atoms: O_2  and  C_3
REMARK    3  A    between atoms: C_4  and  O_5
REMARK    4  A    between atoms: O_5  and  C_6
REMARK    5  A    between atoms: C_13  and  C_14
REMARK    6  A    between atoms: C_14  and  C_15
REMARK    7  A    between atoms: C_15  and  C_16
REMARK    8  A    between atoms: C_15  and  C_17
REMARK                            x       y       z     vdW  Elec       q    Type
REMARK                         _______ _______ _______ _____ _____    ______ ____
ROOT
ATOM      1  C   UNL     1       3.077   1.216   0.441  0.00  0.00    +0.000 A 
ATOM      2  C   UNL     1       4.206   1.679  -0.246  0.00  0.00    +0.000 A 
ATOM      3  C   UNL     1       4.902   2.797   0.264  0.00  0.00    +0.000 A 
ATOM      4  C   UNL     1       4.523   3.448   1.464  0.00  0.00    +0.000 A 
ATOM      5  C   UNL     1       5.376   4.595   2.029  0.00  0.00    +0.000 C 
ATOM      6  C   UNL     1       6.759   4.061   2.347  0.00  0.00    +0.000 C 
ATOM      7  C   UNL     1       7.573   5.307   2.599  0.00  0.00    +0.000 C 
ATOM      8  O   UNL     1       7.815   6.137   1.752  0.00  0.00    +0.000 OA
ATOM      9  C   UNL     1       7.651   5.594   4.063  0.00  0.00    +0.000 C 
ATOM     10  C   UNL     1       6.025   6.075   4.057  0.00  0.00    +0.000 C 
ATOM     11  N   UNL     1       4.902   5.289   3.276  0.00  0.00    +0.000 NA
ATOM     12  C   UNL     1       4.054   4.427   4.116  0.00  0.00    +0.000 C 
ATOM     13  C   UNL     1       2.938   3.623   3.396  0.00  0.00    +0.000 C 
ATOM     14  C   UNL     1       3.399   2.965   2.131  0.00  0.00    +0.000 A 
ATOM     15  C   UNL     1       2.683   1.866   1.616  0.00  0.00    +0.000 A 
ENDROOT
BRANCH   1  17
ATOM     16  C   UNL     1       1.026   0.123   0.006  0.00  0.00    +0.000 C 
ATOM     17  O   UNL     1       2.448   0.062   0.052  0.00  0.00    +0.000 OA
ENDBRANCH   1  17
BRANCH   2  18
ATOM     18  O   UNL     1       4.754   1.160  -1.397  0.00  0.00    +0.000 OA
ATOM     19  C   UNL     1       4.094   0.047  -1.992  0.00  0.00    +0.000 C 
ENDBRANCH   2  18
BRANCH   9  20
ATOM     20  C   UNL     1       8.877   6.597   4.384  0.00  0.00    +0.000 C 
BRANCH  20  21
ATOM     21  C   UNL     1      10.320   6.178   5.008  0.00  0.00    +0.000 C 
ATOM     22  C   UNL     1      11.353   5.467   4.100  0.00  0.00    +0.000 C 
ATOM     23  C   UNL     1      11.049   7.479   5.471  0.00  0.00    +0.000 C 
ENDBRANCH  20  21
ENDBRANCH   9  20
TORSDOF 4
