REMARK  Name = Tetracycline
REMARK  10 active torsions:
REMARK  status: ('A' for Active; 'I' for Inactive)
REMARK    1  A    between atoms: C_7  and  O_8
REMARK    2  A    between atoms: C_9  and  O_10
REMARK    3  A    between atoms: C_13  and  C_14
REMARK    4  A    between atoms: C_17  and  O_18
REMARK    5  A    between atoms: C_19  and  N_20
REMARK    6  A    between atoms: N_20  and  C_21
REMARK    7  A    between atoms: N_20  and  C_22
REMARK    8  A    between atoms: C_26  and  O_27
REMARK    9  A    between atoms: C_32  and  C_33
REMARK   10  A    between atoms: C_32  and  O_34
REMARK                            x       y       z     vdW  Elec       q    Type
REMARK                         _______ _______ _______ _____ _____    ______ ____
ROOT
ATOM      1  C   UNL     1       1.677   0.344  -0.015  0.00  0.00    +0.000 C 
ATOM      2  C   UNL     1       2.112   0.182   1.650  0.00  0.00    +0.000 C 
ATOM      3  C   UNL     1       1.788  -0.959   2.484  0.00  0.00    +0.000 C 
ATOM      4  C   UNL     1       2.405  -2.087   1.839  0.00  0.00    +0.000 C 
ATOM      5  C   UNL     1       2.999  -1.792   0.682  0.00  0.00    +0.000 C 
ATOM      6  C   UNL     1       2.982  -0.173  -0.058  0.00  0.00    +0.000 C 
ATOM      7  C   UNL     1       2.962   1.767   0.558  0.00  0.00    +0.000 C 
ATOM      8  O   UNL     1       2.209   2.388   1.408  0.00  0.00    +0.000 OA
ATOM      9  C   UNL     1       3.264   3.019  -0.192  0.00  0.00    +0.000 C 
ATOM     10  C   UNL     1       2.285   2.668  -1.086  0.00  0.00    +0.000 C 
ATOM     11  C   UNL     1       2.443   1.235  -1.503  0.00  0.00    +0.000 C 
ATOM     12  C   UNL     1       2.433  -3.341   2.628  0.00  0.00    +0.000 C 
ATOM     13  O   UNL     1       2.612  -4.436   2.109  0.00  0.00    +0.000 OA
ATOM     14  C   UNL     1       2.292  -3.141   4.108  0.00  0.00    +0.000 A 
ATOM     15  C   UNL     1       2.121  -4.199   4.984  0.00  0.00    +0.000 A 
ATOM     16  C   UNL     1       1.967  -3.945   6.352  0.00  0.00    +0.000 A 
ATOM     17  C   UNL     1       2.005  -2.653   6.866  0.00  0.00    +0.000 A 
ATOM     18  C   UNL     1       2.224  -1.609   6.018  0.00  0.00    +0.000 A 
ATOM     19  C   UNL     1       2.338  -1.841   4.654  0.00  0.00    +0.000 A 
ATOM     20  C   UNL     1       2.508  -0.645   3.800  0.00  0.00    +0.000 C 
ATOM     21  C   UNL     1       1.826   0.622   4.370  0.00  0.00    +0.000 C 
ENDROOT
BRANCH   9  22
ATOM     22  C   UNL     1       4.745   3.203   0.152  0.00  0.00    +0.000 C 
ATOM     23  N   UNL     1       5.480   2.055   0.280  0.00  0.00    +0.000 N 
ATOM     24  O   UNL     1       5.283   4.295   0.284  0.00  0.00    +0.000 OA
ATOM     25  H   UNL     1       5.026   1.301  -0.208  0.00  0.00    +0.000 HD
ATOM     26  H   UNL     1       6.434   2.142  -0.040  0.00  0.00    +0.000 HD
ENDBRANCH   9  22
BRANCH  11  27
ATOM     27  N   UNL     1       4.096   1.174  -1.739  0.00  0.00    +0.000 NA
ATOM     28  C   UNL     1       4.935  -0.043  -1.841  0.00  0.00    +0.000 C 
ATOM     29  C   UNL     1       4.639   2.248  -2.568  0.00  0.00    +0.000 C 
ENDBRANCH  11  27
BRANCH   5  30
ATOM     30  O   UNL     1       3.410  -2.882  -0.122  0.00  0.00    +0.000 OA
ATOM     31  H   UNL     1       3.102  -3.720   0.316  0.00  0.00    +0.000 HD
ENDBRANCH   5  30
BRANCH   6  32
ATOM     32  O   UNL     1       2.737  -0.932  -1.328  0.00  0.00    +0.000 OA
ATOM     33  H   UNL     1       3.359  -1.692  -1.334  0.00  0.00    +0.000 HD
ENDBRANCH   6  32
BRANCH  10  34
ATOM     34  O   UNL     1       0.915   2.974  -0.912  0.00  0.00    +0.000 OA
ATOM     35  H   UNL     1       0.769   3.421  -0.051  0.00  0.00    +0.000 HD
ENDBRANCH  10  34
BRANCH  15  36
ATOM     36  O   UNL     1       2.079  -5.502   4.583  0.00  0.00    +0.000 OA
ATOM     37  H   UNL     1       2.239  -5.541   3.616  0.00  0.00    +0.000 HD
ENDBRANCH  15  36
BRANCH  20  38
ATOM     38  O   UNL     1       3.932  -0.452   3.677  0.00  0.00    +0.000 OA
ATOM     39  H   UNL     1       4.345  -1.233   3.260  0.00  0.00    +0.000 HD
ENDBRANCH  20  38
TORSDOF 7
