REMARK  Name = Tetramethylthiuram monosulfide
REMARK  8 active torsions:
REMARK  status: ('A' for Active; 'I' for Inactive)
REMARK    1  A    between atoms: C_1  and  N_2
REMARK    2  A    between atoms: N_2  and  C_3
REMARK    3  A    between atoms: N_2  and  C_4
REMARK    4  A    between atoms: C_4  and  S_6
REMARK    5  A    between atoms: S_6  and  C_7
REMARK    6  A    between atoms: C_7  and  N_9
REMARK    7  A    between atoms: N_9  and  C_10
REMARK    8  A    between atoms: N_9  and  C_11
REMARK                            x       y       z     vdW  Elec       q    Type
REMARK                         _______ _______ _______ _____ _____    ______ ____
ROOT
ATOM      1  S   UNL     1       4.781  -1.157   0.955  0.00  0.00    +0.000 S 
ENDROOT
BRANCH   1   2
ATOM      2  C   UNL     1       2.989  -1.097   0.902  0.00  0.00    +0.000 C 
ATOM      3  S   UNL     1       1.912  -2.067   1.769  0.00  0.00    +0.000 S 
BRANCH   2   5
ATOM      4  C   UNL     1       0.975   0.026  -0.103  0.00  0.00    +0.000 C 
ATOM      5  N   UNL     1       2.438  -0.108   0.016  0.00  0.00    +0.000 N 
ATOM      6  C   UNL     1       3.215   0.813  -0.808  0.00  0.00    +0.000 C 
ENDBRANCH   2   5
ENDBRANCH   1   2
BRANCH   1   7
ATOM      7  C   UNL     1       5.454  -2.399   2.067  0.00  0.00    +0.000 C 
ATOM      8  S   UNL     1       4.557  -3.463   3.019  0.00  0.00    +0.000 S 
BRANCH   7   9
ATOM      9  N   UNL     1       6.886  -2.468   2.129  0.00  0.00    +0.000 N 
ATOM     10  C   UNL     1       7.833  -1.636   1.384  0.00  0.00    +0.000 C 
ATOM     11  C   UNL     1       7.583  -3.440   2.999  0.00  0.00    +0.000 C 
ENDBRANCH   7   9
ENDBRANCH   1   7
TORSDOF 4
