REMARK  Name = Tetrachlorodecaoxide
REMARK  0 active torsions:
REMARK  status: ('A' for Active; 'I' for Inactive)
REMARK                            x       y       z     vdW  Elec       q    Type
REMARK                         _______ _______ _______ _____ _____    ______ ____
ROOT
ATOM      1  O   HOH     1       1.053  -0.080   0.030  0.00  0.00    +0.000 OA
ATOM      2  H   HOH     0       2.023  -0.080   0.030  0.00  0.00    +0.000 HD
ATOM      3  H   HOH     0       0.730  -0.628  -0.702  0.00  0.00    +0.000 HD
ENDROOT
TORSDOF 0
REMARK  Name = Tetrachlorodecaoxide
REMARK  0 active torsions:
REMARK  status: ('A' for Active; 'I' for Inactive)
REMARK                            x       y       z     vdW  Elec       q    Type
REMARK                         _______ _______ _______ _____ _____    ______ ____
ROOT
ATOM      1  O   UNL     1       1.026  -0.073  -0.064  0.00  0.00    +0.000 OA
ATOM      2  O   UNL     1       2.208  -0.073  -0.064  0.00  0.00    +0.000 OA
ENDROOT
TORSDOF 0
REMARK  Name = Tetrachlorodecaoxide
REMARK  0 active torsions:
REMARK  status: ('A' for Active; 'I' for Inactive)
REMARK                            x       y       z     vdW  Elec       q    Type
REMARK                         _______ _______ _______ _____ _____    ______ ____
ROOT
ATOM      1  O   UNL     1       0.961  -0.000   0.092  0.00  0.00    +0.000 OA
ATOM      2 CL   UNL     1       2.641  -0.000   0.092  0.00  0.00    +0.000 Cl
ATOM      3  O   UNL     1       4.145  -0.000   0.092  0.00  0.00    +0.000 OA
ENDROOT
TORSDOF 0
REMARK  Name = Tetrachlorodecaoxide
REMARK  0 active torsions:
REMARK  status: ('A' for Active; 'I' for Inactive)
REMARK                            x       y       z     vdW  Elec       q    Type
REMARK                         _______ _______ _______ _____ _____    ______ ____
ROOT
ATOM      1  O   UNL     1       1.005   0.045   0.089  0.00  0.00    +0.000 OA
ATOM      2 CL   UNL     1       2.685   0.045   0.089  0.00  0.00    +0.000 Cl
ATOM      3  O   UNL     1       4.188   0.045   0.089  0.00  0.00    +0.000 OA
ENDROOT
TORSDOF 0
REMARK  Name = Tetrachlorodecaoxide
REMARK  0 active torsions:
REMARK  status: ('A' for Active; 'I' for Inactive)
REMARK                            x       y       z     vdW  Elec       q    Type
REMARK                         _______ _______ _______ _____ _____    ______ ____
ROOT
ATOM      1  O   UNL     1       1.039   0.013  -0.091  0.00  0.00    +0.000 OA
ATOM      2 CL   UNL     1       2.719   0.013  -0.091  0.00  0.00    +0.000 Cl
ATOM      3  O   UNL     1       4.222   0.013  -0.091  0.00  0.00    +0.000 OA
ENDROOT
TORSDOF 0
REMARK  Name = Tetrachlorodecaoxide
REMARK  0 active torsions:
REMARK  status: ('A' for Active; 'I' for Inactive)
REMARK                            x       y       z     vdW  Elec       q    Type
REMARK                         _______ _______ _______ _____ _____    ______ ____
ROOT
ATOM      1  O   UNL     1       1.055  -0.041  -0.072  0.00  0.00    +0.000 OA
ATOM      2 CL   UNL     1       2.735  -0.041  -0.072  0.00  0.00    +0.000 Cl
ATOM      3  O   UNL     1       4.239  -0.041  -0.072  0.00  0.00    +0.000 OA
ENDROOT
TORSDOF 0
