REMARK  Name = Tetrakis(2-methoxyisobutylisocyanide)copper(I) tetrafluoroborate
REMARK  24 active torsions:
REMARK  status: ('A' for Active; 'I' for Inactive)
REMARK    1  A    between atoms: C_7  and  O_8
REMARK    2  A    between atoms: O_8  and  C_9
REMARK    3  A    between atoms: C_9  and  C_10
REMARK    4  A    between atoms: C_9  and  C_11
REMARK    5  A    between atoms: C_9  and  C_12
REMARK    6  A    between atoms: C_12  and  N_13
REMARK    7  A    between atoms: C_15  and  O_16
REMARK    8  A    between atoms: O_16  and  C_17
REMARK    9  A    between atoms: C_17  and  C_18
REMARK   10  A    between atoms: C_17  and  C_19
REMARK   11  A    between atoms: C_17  and  C_20
REMARK   12  A    between atoms: C_20  and  N_21
REMARK   13  A    between atoms: C_23  and  O_24
REMARK   14  A    between atoms: O_24  and  C_25
REMARK   15  A    between atoms: C_25  and  C_26
REMARK   16  A    between atoms: C_25  and  C_27
REMARK   17  A    between atoms: C_25  and  C_28
REMARK   18  A    between atoms: C_28  and  N_29
REMARK   19  A    between atoms: C_31  and  O_32
REMARK   20  A    between atoms: O_32  and  C_33
REMARK   21  A    between atoms: C_33  and  C_34
REMARK   22  A    between atoms: C_33  and  C_35
REMARK   23  A    between atoms: C_33  and  C_36
REMARK   24  A    between atoms: C_36  and  N_37
REMARK                            x       y       z     vdW  Elec       q    Type
REMARK                         _______ _______ _______ _____ _____    ______ ____
ROOT
ATOM      1 CU   UNL     1       0.951   0.068  -0.054  0.00  0.00    +0.000 Cu
ENDROOT
TORSDOF 0
REMARK  Name = Tetrakis(2-methoxyisobutylisocyanide)copper(I) tetrafluoroborate
REMARK  24 active torsions:
REMARK  status: ('A' for Active; 'I' for Inactive)
REMARK    1  A    between atoms: C_7  and  O_8
REMARK    2  A    between atoms: O_8  and  C_9
REMARK    3  A    between atoms: C_9  and  C_10
REMARK    4  A    between atoms: C_9  and  C_11
REMARK    5  A    between atoms: C_9  and  C_12
REMARK    6  A    between atoms: C_12  and  N_13
REMARK    7  A    between atoms: C_15  and  O_16
REMARK    8  A    between atoms: O_16  and  C_17
REMARK    9  A    between atoms: C_17  and  C_18
REMARK   10  A    between atoms: C_17  and  C_19
REMARK   11  A    between atoms: C_17  and  C_20
REMARK   12  A    between atoms: C_20  and  N_21
REMARK   13  A    between atoms: C_23  and  O_24
REMARK   14  A    between atoms: O_24  and  C_25
REMARK   15  A    between atoms: C_25  and  C_26
REMARK   16  A    between atoms: C_25  and  C_27
REMARK   17  A    between atoms: C_25  and  C_28
REMARK   18  A    between atoms: C_28  and  N_29
REMARK   19  A    between atoms: C_31  and  O_32
REMARK   20  A    between atoms: O_32  and  C_33
REMARK   21  A    between atoms: C_33  and  C_34
REMARK   22  A    between atoms: C_33  and  C_35
REMARK   23  A    between atoms: C_33  and  C_36
REMARK   24  A    between atoms: C_36  and  N_37
REMARK                            x       y       z     vdW  Elec       q    Type
REMARK                         _______ _______ _______ _____ _____    ______ ____
ROOT
ATOM      1  F   UNL     2       0.938   0.055   0.056  0.00  0.00    +0.000 F 
ATOM      2  B   UNL     2       2.348   0.055   0.056  0.00  0.00    +0.000 B 
ATOM      3  F   UNL     2       2.818   0.187   1.379  0.00  0.00    +0.000 F 
ATOM      4  F   UNL     2       2.818  -1.157  -0.490  0.00  0.00    +0.000 F 
ATOM      5  F   UNL     2       2.818   1.134  -0.720  0.00  0.00    +0.000 F 
ENDROOT
TORSDOF 0
REMARK  Name = Tetrakis(2-methoxyisobutylisocyanide)copper(I) tetrafluoroborate
REMARK  24 active torsions:
REMARK  status: ('A' for Active; 'I' for Inactive)
REMARK    1  A    between atoms: C_7  and  O_8
REMARK    2  A    between atoms: O_8  and  C_9
REMARK    3  A    between atoms: C_9  and  C_10
REMARK    4  A    between atoms: C_9  and  C_11
REMARK    5  A    between atoms: C_9  and  C_12
REMARK    6  A    between atoms: C_12  and  N_13
REMARK    7  A    between atoms: C_15  and  O_16
REMARK    8  A    between atoms: O_16  and  C_17
REMARK    9  A    between atoms: C_17  and  C_18
REMARK   10  A    between atoms: C_17  and  C_19
REMARK   11  A    between atoms: C_17  and  C_20
REMARK   12  A    between atoms: C_20  and  N_21
REMARK   13  A    between atoms: C_23  and  O_24
REMARK   14  A    between atoms: O_24  and  C_25
REMARK   15  A    between atoms: C_25  and  C_26
REMARK   16  A    between atoms: C_25  and  C_27
REMARK   17  A    between atoms: C_25  and  C_28
REMARK   18  A    between atoms: C_28  and  N_29
REMARK   19  A    between atoms: C_31  and  O_32
REMARK   20  A    between atoms: O_32  and  C_33
REMARK   21  A    between atoms: C_33  and  C_34
REMARK   22  A    between atoms: C_33  and  C_35
REMARK   23  A    between atoms: C_33  and  C_36
REMARK   24  A    between atoms: C_36  and  N_37
REMARK                            x       y       z     vdW  Elec       q    Type
REMARK                         _______ _______ _______ _____ _____    ______ ____
ROOT
ATOM      1  C   UNL     3       2.848   0.878   0.916  0.00  0.00    +0.000 C 
ATOM      2  C   UNL     3       2.341   2.282   0.633  0.00  0.00    +0.000 C 
ATOM      3  C   UNL     3       2.341   0.420   2.274  0.00  0.00    +0.000 C 
ENDROOT
BRANCH   1   5
ATOM      4  C   UNL     3       0.955  -0.007  -0.089  0.00  0.00    +0.000 C 
ATOM      5  O   UNL     3       2.375  -0.007  -0.089  0.00  0.00    +0.000 OA
ENDBRANCH   1   5
BRANCH   1   6
ATOM      6  C   UNL     3       4.368   0.878   0.916  0.00  0.00    +0.000 C 
BRANCH   6   7
ATOM      7  N   UNL     3       4.858   1.794   1.955  0.00  0.00    +0.000 NA
ATOM      8  C   UNL     3       5.278   2.580   2.847  0.00  0.00    +0.000 C 
ENDBRANCH   6   7
ENDBRANCH   1   6
TORSDOF 3
REMARK  Name = Tetrakis(2-methoxyisobutylisocyanide)copper(I) tetrafluoroborate
REMARK  24 active torsions:
REMARK  status: ('A' for Active; 'I' for Inactive)
REMARK    1  A    between atoms: C_7  and  O_8
REMARK    2  A    between atoms: O_8  and  C_9
REMARK    3  A    between atoms: C_9  and  C_10
REMARK    4  A    between atoms: C_9  and  C_11
REMARK    5  A    between atoms: C_9  and  C_12
REMARK    6  A    between atoms: C_12  and  N_13
REMARK    7  A    between atoms: C_15  and  O_16
REMARK    8  A    between atoms: O_16  and  C_17
REMARK    9  A    between atoms: C_17  and  C_18
REMARK   10  A    between atoms: C_17  and  C_19
REMARK   11  A    between atoms: C_17  and  C_20
REMARK   12  A    between atoms: C_20  and  N_21
REMARK   13  A    between atoms: C_23  and  O_24
REMARK   14  A    between atoms: O_24  and  C_25
REMARK   15  A    between atoms: C_25  and  C_26
REMARK   16  A    between atoms: C_25  and  C_27
REMARK   17  A    between atoms: C_25  and  C_28
REMARK   18  A    between atoms: C_28  and  N_29
REMARK   19  A    between atoms: C_31  and  O_32
REMARK   20  A    between atoms: O_32  and  C_33
REMARK   21  A    between atoms: C_33  and  C_34
REMARK   22  A    between atoms: C_33  and  C_35
REMARK   23  A    between atoms: C_33  and  C_36
REMARK   24  A    between atoms: C_36  and  N_37
REMARK                            x       y       z     vdW  Elec       q    Type
REMARK                         _______ _______ _______ _____ _____    ______ ____
ROOT
ATOM      1  C   UNL     4       2.908  -1.151  -0.488  0.00  0.00    +0.000 C 
ATOM      2  C   UNL     4       2.401  -2.325   0.334  0.00  0.00    +0.000 C 
ATOM      3  C   UNL     4       2.401  -1.277  -1.916  0.00  0.00    +0.000 C 
ENDROOT
BRANCH   1   5
ATOM      4  C   UNL     4       1.014   0.062   0.077  0.00  0.00    +0.000 C 
ATOM      5  O   UNL     4       2.434   0.062   0.077  0.00  0.00    +0.000 OA
ENDBRANCH   1   5
BRANCH   1   6
ATOM      6  C   UNL     4       4.428  -1.151  -0.488  0.00  0.00    +0.000 C 
BRANCH   6   7
ATOM      7  N   UNL     4       4.918  -2.408  -1.073  0.00  0.00    +0.000 NA
ATOM      8  C   UNL     4       5.338  -3.485  -1.575  0.00  0.00    +0.000 C 
ENDBRANCH   6   7
ENDBRANCH   1   6
TORSDOF 3
REMARK  Name = Tetrakis(2-methoxyisobutylisocyanide)copper(I) tetrafluoroborate
REMARK  24 active torsions:
REMARK  status: ('A' for Active; 'I' for Inactive)
REMARK    1  A    between atoms: C_7  and  O_8
REMARK    2  A    between atoms: O_8  and  C_9
REMARK    3  A    between atoms: C_9  and  C_10
REMARK    4  A    between atoms: C_9  and  C_11
REMARK    5  A    between atoms: C_9  and  C_12
REMARK    6  A    between atoms: C_12  and  N_13
REMARK    7  A    between atoms: C_15  and  O_16
REMARK    8  A    between atoms: O_16  and  C_17
REMARK    9  A    between atoms: C_17  and  C_18
REMARK   10  A    between atoms: C_17  and  C_19
REMARK   11  A    between atoms: C_17  and  C_20
REMARK   12  A    between atoms: C_20  and  N_21
REMARK   13  A    between atoms: C_23  and  O_24
REMARK   14  A    between atoms: O_24  and  C_25
REMARK   15  A    between atoms: C_25  and  C_26
REMARK   16  A    between atoms: C_25  and  C_27
REMARK   17  A    between atoms: C_25  and  C_28
REMARK   18  A    between atoms: C_28  and  N_29
REMARK   19  A    between atoms: C_31  and  O_32
REMARK   20  A    between atoms: O_32  and  C_33
REMARK   21  A    between atoms: C_33  and  C_34
REMARK   22  A    between atoms: C_33  and  C_35
REMARK   23  A    between atoms: C_33  and  C_36
REMARK   24  A    between atoms: C_36  and  N_37
REMARK                            x       y       z     vdW  Elec       q    Type
REMARK                         _______ _______ _______ _____ _____    ______ ____
ROOT
ATOM      1  C   UNL     5       2.976   1.252  -0.307  0.00  0.00    +0.000 C 
ATOM      2  C   UNL     5       2.469   1.624  -1.691  0.00  0.00    +0.000 C 
ATOM      3  C   UNL     5       2.469   2.265   0.707  0.00  0.00    +0.000 C 
ENDROOT
BRANCH   1   5
ATOM      4  C   UNL     5       1.082  -0.041   0.039  0.00  0.00    +0.000 C 
ATOM      5  O   UNL     5       2.502  -0.041   0.039  0.00  0.00    +0.000 OA
ENDBRANCH   1   5
BRANCH   1   6
ATOM      6  C   UNL     5       4.496   1.252  -0.307  0.00  0.00    +0.000 C 
BRANCH   6   7
ATOM      7  N   UNL     5       4.986   2.591  -0.665  0.00  0.00    +0.000 NA
ATOM      8  C   UNL     5       5.406   3.740  -0.972  0.00  0.00    +0.000 C 
ENDBRANCH   6   7
ENDBRANCH   1   6
TORSDOF 3
REMARK  Name = Tetrakis(2-methoxyisobutylisocyanide)copper(I) tetrafluoroborate
REMARK  24 active torsions:
REMARK  status: ('A' for Active; 'I' for Inactive)
REMARK    1  A    between atoms: C_7  and  O_8
REMARK    2  A    between atoms: O_8  and  C_9
REMARK    3  A    between atoms: C_9  and  C_10
REMARK    4  A    between atoms: C_9  and  C_11
REMARK    5  A    between atoms: C_9  and  C_12
REMARK    6  A    between atoms: C_12  and  N_13
REMARK    7  A    between atoms: C_15  and  O_16
REMARK    8  A    between atoms: O_16  and  C_17
REMARK    9  A    between atoms: C_17  and  C_18
REMARK   10  A    between atoms: C_17  and  C_19
REMARK   11  A    between atoms: C_17  and  C_20
REMARK   12  A    between atoms: C_20  and  N_21
REMARK   13  A    between atoms: C_23  and  O_24
REMARK   14  A    between atoms: O_24  and  C_25
REMARK   15  A    between atoms: C_25  and  C_26
REMARK   16  A    between atoms: C_25  and  C_27
REMARK   17  A    between atoms: C_25  and  C_28
REMARK   18  A    between atoms: C_28  and  N_29
REMARK   19  A    between atoms: C_31  and  O_32
REMARK   20  A    between atoms: O_32  and  C_33
REMARK   21  A    between atoms: C_33  and  C_34
REMARK   22  A    between atoms: C_33  and  C_35
REMARK   23  A    between atoms: C_33  and  C_36
REMARK   24  A    between atoms: C_36  and  N_37
REMARK                            x       y       z     vdW  Elec       q    Type
REMARK                         _______ _______ _______ _____ _____    ______ ____
ROOT
ATOM      1  C   UNL     6       2.878   1.112  -0.700  0.00  0.00    +0.000 C 
ATOM      2  C   UNL     6       2.371   1.161  -2.133  0.00  0.00    +0.000 C 
ATOM      3  C   UNL     6       2.371   2.329   0.058  0.00  0.00    +0.000 C 
ENDROOT
BRANCH   1   5
ATOM      4  C   UNL     6       0.984  -0.069  -0.071  0.00  0.00    +0.000 C 
ATOM      5  O   UNL     6       2.404  -0.069  -0.071  0.00  0.00    +0.000 OA
ENDBRANCH   1   5
BRANCH   1   6
ATOM      6  C   UNL     6       4.398   1.112  -0.700  0.00  0.00    +0.000 C 
BRANCH   6   7
ATOM      7  N   UNL     6       4.888   2.336  -1.352  0.00  0.00    +0.000 NA
ATOM      8  C   UNL     6       5.308   3.385  -1.911  0.00  0.00    +0.000 C 
ENDBRANCH   6   7
ENDBRANCH   1   6
TORSDOF 3
