REMARK  Name = Tetracaine
REMARK  12 active torsions:
REMARK  status: ('A' for Active; 'I' for Inactive)
REMARK    1  A    between atoms: C_1  and  C_2
REMARK    2  A    between atoms: C_2  and  C_3
REMARK    3  A    between atoms: C_3  and  C_4
REMARK    4  A    between atoms: C_4  and  N_5
REMARK    5  A    between atoms: N_5  and  C_6
REMARK    6  A    between atoms: C_9  and  C_12
REMARK    7  A    between atoms: C_12  and  O_14
REMARK    8  A    between atoms: O_14  and  C_15
REMARK    9  A    between atoms: C_15  and  C_16
REMARK   10  A    between atoms: C_16  and  N_17
REMARK   11  A    between atoms: N_17  and  C_18
REMARK   12  A    between atoms: N_17  and  C_19
REMARK                            x       y       z     vdW  Elec       q    Type
REMARK                         _______ _______ _______ _____ _____    ______ ____
ROOT
ATOM      1  C   UNL     1       6.360  -0.471  -3.063  0.00  0.00    +0.000 A 
ATOM      2  C   UNL     1       6.920   0.112  -4.204  0.00  0.00    +0.000 A 
ATOM      3  C   UNL     1       8.275  -0.065  -4.520  0.00  0.00    +0.000 A 
ATOM      4  C   UNL     1       9.124  -0.776  -3.660  0.00  0.00    +0.000 A 
ATOM      5  C   UNL     1       8.577  -1.357  -2.515  0.00  0.00    +0.000 A 
ATOM      6  C   UNL     1       7.212  -1.195  -2.222  0.00  0.00    +0.000 A 
ENDROOT
BRANCH   1   7
ATOM      7  N   UNL     1       5.013  -0.284  -2.804  0.00  0.00    +0.000 N 
ATOM      8  H   UNL     1       4.368  -0.478  -3.565  0.00  0.00    +0.000 HD
BRANCH   7   9
ATOM      9  C   UNL     1       4.491  -0.183  -1.454  0.00  0.00    +0.000 C 
BRANCH   9  10
ATOM     10  C   UNL     1       2.964  -0.185  -1.457  0.00  0.00    +0.000 C 
BRANCH  10  12
ATOM     11  C   UNL     1       0.909   0.045  -0.028  0.00  0.00    +0.000 C 
ATOM     12  C   UNL     1       2.427   0.043  -0.044  0.00  0.00    +0.000 C 
ENDBRANCH  10  12
ENDBRANCH   9  10
ENDBRANCH   7   9
ENDBRANCH   1   7
BRANCH   4  13
ATOM     13  C   UNL     1      10.582  -0.829  -3.975  0.00  0.00    +0.000 C 
ATOM     14  O   UNL     1      11.061  -0.269  -4.956  0.00  0.00    +0.000 OA
BRANCH  13  15
ATOM     15  O   UNL     1      11.296  -1.517  -3.040  0.00  0.00    +0.000 OA
BRANCH  15  16
ATOM     16  C   UNL     1      12.717  -1.509  -3.290  0.00  0.00    +0.000 C 
BRANCH  16  17
ATOM     17  C   UNL     1      13.485  -2.256  -2.180  0.00  0.00    +0.000 C 
BRANCH  17  18
ATOM     18  N   UNL     1      14.948  -2.305  -2.396  0.00  0.00    +0.000 NA
ATOM     19  C   UNL     1      15.533  -0.962  -2.432  0.00  0.00    +0.000 C 
ATOM     20  C   UNL     1      15.600  -3.082  -1.336  0.00  0.00    +0.000 C 
ENDBRANCH  17  18
ENDBRANCH  16  17
ENDBRANCH  15  16
ENDBRANCH  13  15
ENDBRANCH   4  13
TORSDOF 9
