REMARK  Name = Tetradecyl hydrogen sulfate (ester)
REMARK  16 active torsions:
REMARK  status: ('A' for Active; 'I' for Inactive)
REMARK    1  A    between atoms: C_1  and  C_2
REMARK    2  A    between atoms: C_2  and  C_3
REMARK    3  A    between atoms: C_3  and  C_4
REMARK    4  A    between atoms: C_4  and  C_5
REMARK    5  A    between atoms: C_5  and  C_6
REMARK    6  A    between atoms: C_5  and  C_8
REMARK    7  A    between atoms: C_6  and  C_7
REMARK    8  A    between atoms: C_8  and  C_9
REMARK    9  A    between atoms: C_9  and  C_10
REMARK   10  A    between atoms: C_10  and  C_11
REMARK   11  A    between atoms: C_10  and  O_15
REMARK   12  A    between atoms: C_11  and  C_12
REMARK   13  A    between atoms: C_12  and  C_13
REMARK   14  A    between atoms: C_12  and  C_14
REMARK   15  A    between atoms: O_15  and  S_16
REMARK   16  A    between atoms: S_16  and  O_17
REMARK                            x       y       z     vdW  Elec       q    Type
REMARK                         _______ _______ _______ _____ _____    ______ ____
ROOT
ATOM      1  C   UNL     1       8.621   4.203   0.007  0.00  0.00    +0.000 C 
ENDROOT
BRANCH   1   2
ATOM      2  C   UNL     1       7.102   4.314   0.205  0.00  0.00    +0.000 C 
BRANCH   2   3
ATOM      3  C   UNL     1       6.502   2.948   0.640  0.00  0.00    +0.000 C 
BRANCH   3   4
ATOM      4  C   UNL     1       4.986   2.833   0.273  0.00  0.00    +0.000 C 
BRANCH   4   5
ATOM      5  C   UNL     1       4.374   3.624   1.411  0.00  0.00    +0.000 C 
ATOM      6  C   UNL     1       2.890   3.805   1.415  0.00  0.00    +0.000 C 
ENDBRANCH   4   5
BRANCH   4   7
ATOM      7  C   UNL     1       4.510   1.357   0.117  0.00  0.00    +0.000 C 
BRANCH   7   8
ATOM      8  C   UNL     1       3.008   1.207  -0.050  0.00  0.00    +0.000 C 
BRANCH   8  10
ATOM      9  C   UNL     1       0.958  -0.134   0.027  0.00  0.00    +0.000 C 
ATOM     10  C   UNL     1       2.482  -0.205  -0.032  0.00  0.00    +0.000 C 
ENDBRANCH   8  10
ENDBRANCH   7   8
ENDBRANCH   4   7
ENDBRANCH   3   4
ENDBRANCH   2   3
ENDBRANCH   1   2
BRANCH   1  11
ATOM     11  C   UNL     1       8.998   3.436  -1.283  0.00  0.00    +0.000 C 
BRANCH  11  12
ATOM     12  C   UNL     1       8.519   2.000  -1.440  0.00  0.00    +0.000 C 
ATOM     13  C   UNL     1       7.068   1.876  -1.894  0.00  0.00    +0.000 C 
ATOM     14  C   UNL     1       9.222   1.273  -2.559  0.00  0.00    +0.000 C 
ENDBRANCH  11  12
ENDBRANCH   1  11
BRANCH   1  15
ATOM     15  O   UNL     1       9.208   5.508  -0.039  0.00  0.00    +0.000 OA
BRANCH  15  16
ATOM     16  S   UNL     1      10.837   5.695  -0.007  0.00  0.00    +0.000 S 
ATOM     17  O   UNL     1      11.425   4.956  -1.122  0.00  0.00    +0.000 OA
ATOM     18  O   UNL     1      11.148   7.076   0.176  0.00  0.00    +0.000 OA
BRANCH  16  19
ATOM     19  O   UNL     1      11.268   4.902   1.334  0.00  0.00    +0.000 OA
ATOM     20  H   UNL     1      11.043   3.956   1.278  0.00  0.00    +0.000 HD
ENDBRANCH  16  19
ENDBRANCH  15  16
ENDBRANCH   1  15
TORSDOF 12
