REMARK  Name = Tetryzoline
REMARK  1 active torsions:
REMARK  status: ('A' for Active; 'I' for Inactive)
REMARK    1  A    between atoms: C_4  and  C_6
REMARK                            x       y       z     vdW  Elec       q    Type
REMARK                         _______ _______ _______ _____ _____    ______ ____
ROOT
ATOM      1  C   UNL     1      -0.538  -2.525  -0.116  0.00  0.00    +0.000 C 
ATOM      2  C   UNL     1      -0.015  -3.243   1.132  0.00  0.00    +0.000 C 
ATOM      3  C   UNL     1       0.536  -4.582   0.654  0.00  0.00    +0.000 C 
ATOM      4  C   UNL     1      -0.588  -5.449   0.083  0.00  0.00    +0.000 C 
ATOM      5  C   UNL     1      -1.550  -4.706  -0.831  0.00  0.00    +0.000 A 
ATOM      6  C   UNL     1      -2.328  -5.451  -1.730  0.00  0.00    +0.000 A 
ATOM      7  C   UNL     1      -3.161  -4.805  -2.641  0.00  0.00    +0.000 A 
ATOM      8  C   UNL     1      -3.256  -3.414  -2.632  0.00  0.00    +0.000 A 
ATOM      9  C   UNL     1      -2.517  -2.657  -1.717  0.00  0.00    +0.000 A 
ATOM     10  C   UNL     1      -1.641  -3.284  -0.825  0.00  0.00    +0.000 A 
ENDROOT
BRANCH   1  14
ATOM     11  C   UNL     1       0.922   0.863   0.160  0.00  0.00    +0.000 C 
ATOM     12  C   UNL     1      -0.554   1.177  -0.098  0.00  0.00    +0.000 C 
ATOM     13  N   UNL     1      -1.318  -0.117   0.078  0.00  0.00    +0.000 NA
ATOM     14  C   UNL     1      -0.384  -1.025  -0.032  0.00  0.00    +0.000 C 
ATOM     15  N   UNL     1       0.903  -0.541  -0.080  0.00  0.00    +0.000 N 
ATOM     16  H   UNL     1       1.726  -1.114  -0.163  0.00  0.00    +0.000 HD
ENDBRANCH   1  14
TORSDOF 1
