REMARK  Name = Tetrofosmin
REMARK  23 active torsions:
REMARK  status: ('A' for Active; 'I' for Inactive)
REMARK    1  A    between atoms: C_1  and  C_2
REMARK    2  A    between atoms: C_2  and  O_3
REMARK    3  A    between atoms: O_3  and  C_4
REMARK    4  A    between atoms: C_4  and  C_5
REMARK    5  A    between atoms: C_5  and  P_6
REMARK    6  A    between atoms: P_6  and  C_7
REMARK    7  A    between atoms: P_6  and  C_12
REMARK    8  A    between atoms: C_7  and  C_8
REMARK    9  A    between atoms: C_8  and  O_9
REMARK   10  A    between atoms: O_9  and  C_10
REMARK   11  A    between atoms: C_10  and  C_11
REMARK   12  A    between atoms: C_12  and  C_13
REMARK   13  A    between atoms: C_13  and  P_14
REMARK   14  A    between atoms: P_14  and  C_15
REMARK   15  A    between atoms: P_14  and  C_20
REMARK   16  A    between atoms: C_15  and  C_16
REMARK   17  A    between atoms: C_16  and  O_17
REMARK   18  A    between atoms: O_17  and  C_18
REMARK   19  A    between atoms: C_18  and  C_19
REMARK   20  A    between atoms: C_20  and  C_21
REMARK   21  A    between atoms: C_21  and  O_22
REMARK   22  A    between atoms: O_22  and  C_23
REMARK   23  A    between atoms: C_23  and  C_24
REMARK                            x       y       z     vdW  Elec       q    Type
REMARK                         _______ _______ _______ _____ _____    ______ ____
ROOT
ATOM      1  C   UNL     1       7.378  -4.375  -0.142  0.00  0.00    +0.000 C 
ENDROOT
BRANCH   1   2
ATOM      2  C   UNL     1       8.891  -4.603  -0.261  0.00  0.00    +0.000 C 
BRANCH   2   3
ATOM      3  P   UNL     1       9.366  -6.392  -0.156  0.00  0.00    +0.000 P 
BRANCH   3   4
ATOM      4  C   UNL     1      11.215  -6.313  -0.340  0.00  0.00    +0.000 C 
BRANCH   4   5
ATOM      5  C   UNL     1      11.800  -7.727  -0.385  0.00  0.00    +0.000 C 
BRANCH   5   6
ATOM      6  O   UNL     1      13.230  -7.708  -0.387  0.00  0.00    +0.000 OA
BRANCH   6   7
ATOM      7  C   UNL     1      13.732  -9.048  -0.435  0.00  0.00    +0.000 C 
ATOM      8  C   UNL     1      15.245  -9.029  -0.433  0.00  0.00    +0.000 C 
ENDBRANCH   6   7
ENDBRANCH   5   6
ENDBRANCH   4   5
ENDBRANCH   3   4
BRANCH   3   9
ATOM      9  C   UNL     1       8.871  -7.082  -1.816  0.00  0.00    +0.000 C 
BRANCH   9  10
ATOM     10  C   UNL     1       7.355  -7.207  -1.913  0.00  0.00    +0.000 C 
BRANCH  10  11
ATOM     11  O   UNL     1       6.891  -7.919  -3.056  0.00  0.00    +0.000 OA
BRANCH  11  12
ATOM     12  C   UNL     1       5.458  -7.812  -3.091  0.00  0.00    +0.000 C 
ATOM     13  C   UNL     1       4.937  -8.433  -4.362  0.00  0.00    +0.000 C 
ENDBRANCH  11  12
ENDBRANCH  10  11
ENDBRANCH   9  10
ENDBRANCH   3   9
ENDBRANCH   2   3
ENDBRANCH   1   2
BRANCH   1  14
ATOM     14  P   UNL     1       6.854  -2.628  -0.302  0.00  0.00    +0.000 P 
BRANCH  14  15
ATOM     15  C   UNL     1       7.369  -1.985   1.354  0.00  0.00    +0.000 C 
BRANCH  15  16
ATOM     16  C   UNL     1       6.991  -0.520   1.481  0.00  0.00    +0.000 C 
BRANCH  16  17
ATOM     17  O   UNL     1       7.535   0.126   2.622  0.00  0.00    +0.000 OA
BRANCH  17  18
ATOM     18  C   UNL     1       6.955   1.435   2.703  0.00  0.00    +0.000 C 
ATOM     19  C   UNL     1       7.411   2.095   3.975  0.00  0.00    +0.000 C 
ENDBRANCH  17  18
ENDBRANCH  16  17
ENDBRANCH  15  16
ENDBRANCH  14  15
BRANCH  14  20
ATOM     20  C   UNL     1       4.986  -2.808  -0.190  0.00  0.00    +0.000 C 
BRANCH  20  21
ATOM     21  C   UNL     1       4.310  -1.438  -0.235  0.00  0.00    +0.000 C 
BRANCH  21  22
ATOM     22  O   UNL     1       2.886  -1.453  -0.321  0.00  0.00    +0.000 OA
BRANCH  22  24
ATOM     23  C   UNL     1       0.912  -0.076  -0.112  0.00  0.00    +0.000 C 
ATOM     24  C   UNL     1       2.419  -0.101  -0.158  0.00  0.00    +0.000 C 
ENDBRANCH  22  24
ENDBRANCH  21  22
ENDBRANCH  20  21
ENDBRANCH  14  20
ENDBRANCH   1  14
TORSDOF 19
