REMARK  Name = Tezacaftor
REMARK  13 active torsions:
REMARK  status: ('A' for Active; 'I' for Inactive)
REMARK    1  A    between atoms: C_1  and  C_2
REMARK    2  A    between atoms: C_2  and  C_3
REMARK    3  A    between atoms: C_2  and  C_4
REMARK    4  A    between atoms: C_2  and  C_6
REMARK    5  A    between atoms: C_4  and  O_5
REMARK    6  A    between atoms: C_10  and  N_11
REMARK    7  A    between atoms: C_12  and  C_14
REMARK    8  A    between atoms: C_14  and  C_17
REMARK    9  A    between atoms: N_32  and  C_33
REMARK   10  A    between atoms: C_33  and  C_34
REMARK   11  A    between atoms: C_34  and  O_35
REMARK   12  A    between atoms: C_34  and  C_36
REMARK   13  A    between atoms: C_36  and  O_37
REMARK                            x       y       z     vdW  Elec       q    Type
REMARK                         _______ _______ _______ _____ _____    ______ ____
ROOT
ATOM      1  C   UNL     1       2.968   1.243  -0.848  0.00  0.00    +0.000 A 
ATOM      2  C   UNL     1       2.625   2.552  -0.516  0.00  0.00    +0.000 A 
ATOM      3  C   UNL     1       3.103   3.427  -1.505  0.00  0.00    +0.000 A 
ATOM      4  C   UNL     1       3.020   4.829  -1.710  0.00  0.00    +0.000 A 
ATOM      5  C   UNL     1       3.638   5.406  -2.833  0.00  0.00    +0.000 A 
ATOM      6  C   UNL     1       4.267   4.566  -3.739  0.00  0.00    +0.000 A 
ATOM      7  F   UNL     1       4.801   4.933  -4.906  0.00  0.00    +0.000 F 
ATOM      8  C   UNL     1       4.327   3.219  -3.548  0.00  0.00    +0.000 A 
ATOM      9  C   UNL     1       3.767   2.628  -2.430  0.00  0.00    +0.000 A 
ATOM     10  N   UNL     1       3.723   1.309  -2.014  0.00  0.00    +0.000 N 
ENDROOT
BRANCH   5  11
ATOM     11  N   UNL     1       3.554   6.802  -3.023  0.00  0.00    +0.000 N 
ATOM     12  C   UNL     1       4.315   7.462  -3.992  0.00  0.00    +0.000 C 
ATOM     13  O   UNL     1       5.272   7.016  -4.556  0.00  0.00    +0.000 OA
ATOM     14  H   UNL     1       2.970   7.326  -2.394  0.00  0.00    +0.000 HD
BRANCH  12  15
ATOM     15  C   UNL     1       3.908   8.884  -4.348  0.00  0.00    +0.000 C 
ATOM     16  C   UNL     1       3.418   9.733  -3.183  0.00  0.00    +0.000 C 
ATOM     17  C   UNL     1       4.749  10.049  -3.760  0.00  0.00    +0.000 C 
BRANCH  15  18
ATOM     18  C   UNL     1       3.768   9.023  -5.926  0.00  0.00    +0.000 A 
ATOM     19  C   UNL     1       4.911   8.641  -6.662  0.00  0.00    +0.000 A 
ATOM     20  C   UNL     1       4.784   7.901  -7.846  0.00  0.00    +0.000 A 
ATOM     21  C   UNL     1       3.521   7.662  -8.371  0.00  0.00    +0.000 A 
ATOM     22  O   UNL     1       3.300   7.215  -9.662  0.00  0.00    +0.000 OA
ATOM     23  C   UNL     1       3.401   8.517 -10.196  0.00  0.00    +0.000 C 
ATOM     24  F   UNL     1       4.748   8.722 -10.331  0.00  0.00    +0.000 F 
ATOM     25  F   UNL     1       2.897   8.599 -11.452  0.00  0.00    +0.000 F 
ATOM     26  O   UNL     1       2.742   9.472  -9.262  0.00  0.00    +0.000 OA
ATOM     27  C   UNL     1       2.629   8.645  -8.066  0.00  0.00    +0.000 A 
ATOM     28  C   UNL     1       2.599   9.111  -6.721  0.00  0.00    +0.000 A 
ENDBRANCH  15  18
ENDBRANCH  12  15
ENDBRANCH   5  11
BRANCH   1  30
ATOM     29  C   UNL     1       0.975   0.008  -0.063  0.00  0.00    +0.000 C 
ATOM     30  C   UNL     1       2.520   0.004  -0.069  0.00  0.00    +0.000 C 
ATOM     31  C   UNL     1       3.039   0.131   1.379  0.00  0.00    +0.000 C 
BRANCH  30  32
ATOM     32  C   UNL     1       2.983  -1.351  -0.642  0.00  0.00    +0.000 C 
BRANCH  32  33
ATOM     33  O   UNL     1       2.516  -2.480   0.083  0.00  0.00    +0.000 OA
ATOM     34  H   UNL     1       2.907  -2.441   0.970  0.00  0.00    +0.000 HD
ENDBRANCH  32  33
ENDBRANCH  30  32
ENDBRANCH   1  30
BRANCH  10  35
ATOM     35  C   UNL     1       4.365   0.184  -2.697  0.00  0.00    +0.000 C 
BRANCH  35  36
ATOM     36  C   UNL     1       5.166   0.446  -3.964  0.00  0.00    +0.000 C 
BRANCH  36  37
ATOM     37  O   UNL     1       6.306   1.268  -3.686  0.00  0.00    +0.000 OA
ATOM     38  H   UNL     1       6.791   0.910  -2.926  0.00  0.00    +0.000 HD
ENDBRANCH  36  37
BRANCH  36  39
ATOM     39  C   UNL     1       5.685  -0.816  -4.629  0.00  0.00    +0.000 C 
BRANCH  39  40
ATOM     40  O   UNL     1       6.340  -0.484  -5.853  0.00  0.00    +0.000 OA
ATOM     41  H   UNL     1       5.772   0.139  -6.342  0.00  0.00    +0.000 HD
ENDBRANCH  39  40
ENDBRANCH  36  39
ENDBRANCH  35  36
ENDBRANCH  10  35
TORSDOF 11
