REMARK  Name = Thalidomide
REMARK  1 active torsions:
REMARK  status: ('A' for Active; 'I' for Inactive)
REMARK    1  A    between atoms: N_3  and  C_4
REMARK                            x       y       z     vdW  Elec       q    Type
REMARK                         _______ _______ _______ _____ _____    ______ ____
ROOT
ATOM      1  O   UNL     1       1.346   2.280  -0.322  0.00  0.00    +0.000 OA
ATOM      2  C   UNL     1       1.074   1.105  -0.155  0.00  0.00    +0.000 C 
ATOM      3  N   UNL     1       1.877   0.001  -0.100  0.00  0.00    +0.000 N 
ATOM      4  C   UNL     1       1.128  -1.145  -0.029  0.00  0.00    +0.000 C 
ATOM      5  O   UNL     1       1.500  -2.299   0.033  0.00  0.00    +0.000 OA
ATOM      6  C   UNL     1      -0.276  -0.724  -0.004  0.00  0.00    +0.000 A 
ATOM      7  C   UNL     1      -1.448  -1.446   0.041  0.00  0.00    +0.000 A 
ATOM      8  C   UNL     1      -2.647  -0.718   0.034  0.00  0.00    +0.000 A 
ATOM      9  C   UNL     1      -2.651   0.692  -0.003  0.00  0.00    +0.000 A 
ATOM     10  C   UNL     1      -1.454   1.401  -0.039  0.00  0.00    +0.000 A 
ATOM     11  C   UNL     1      -0.294   0.654  -0.048  0.00  0.00    +0.000 A 
ENDROOT
BRANCH   3  12
ATOM     12  C   UNL     1       3.336   0.005  -0.130  0.00  0.00    +0.000 C 
ATOM     13  C   UNL     1       3.983   0.683   1.078  0.00  0.00    +0.000 C 
ATOM     14  C   UNL     1       3.888   2.195   1.004  0.00  0.00    +0.000 C 
ATOM     15  C   UNL     1       4.404   2.715  -0.320  0.00  0.00    +0.000 C 
ATOM     16  O   UNL     1       4.874   3.843  -0.440  0.00  0.00    +0.000 OA
ATOM     17  N   UNL     1       4.314   1.874  -1.405  0.00  0.00    +0.000 N 
ATOM     18  C   UNL     1       3.808   0.597  -1.454  0.00  0.00    +0.000 C 
ATOM     19  O   UNL     1       3.663   0.020  -2.531  0.00  0.00    +0.000 OA
ATOM     20  H   UNL     1       4.599   2.269  -2.291  0.00  0.00    +0.000 HD
ENDBRANCH   3  12
TORSDOF 1
