REMARK  Name = Thenalidine
REMARK  5 active torsions:
REMARK  status: ('A' for Active; 'I' for Inactive)
REMARK    1  A    between atoms: C_1  and  N_2
REMARK    2  A    between atoms: C_5  and  N_8
REMARK    3  A    between atoms: N_8  and  C_9
REMARK    4  A    between atoms: N_8  and  C_15
REMARK    5  A    between atoms: C_9  and  C_10
REMARK                            x       y       z     vdW  Elec       q    Type
REMARK                         _______ _______ _______ _____ _____    ______ ____
ROOT
ATOM      1  N   UNL     1       1.761  -0.048  -1.793  0.00  0.00    +0.000 N 
ENDROOT
BRANCH   1   6
ATOM      2  C   UNL     1      -2.558  -0.383  -0.086  0.00  0.00    +0.000 C 
ATOM      3  N   UNL     1      -1.161  -0.546   0.382  0.00  0.00    +0.000 NA
ATOM      4  C   UNL     1      -0.457   0.566  -0.187  0.00  0.00    +0.000 C 
ATOM      5  C   UNL     1       1.133   0.651   0.360  0.00  0.00    +0.000 C 
ATOM      6  C   UNL     1       1.854  -0.396  -0.352  0.00  0.00    +0.000 C 
ATOM      7  C   UNL     1       1.099  -1.601   0.231  0.00  0.00    +0.000 C 
ATOM      8  C   UNL     1      -0.413  -1.673  -0.170  0.00  0.00    +0.000 C 
ENDBRANCH   1   6
BRANCH   1   9
ATOM      9  C   UNL     1       2.374  -1.017  -2.604  0.00  0.00    +0.000 A 
ATOM     10  C   UNL     1       3.450  -0.736  -3.443  0.00  0.00    +0.000 A 
ATOM     11  C   UNL     1       4.051  -1.749  -4.214  0.00  0.00    +0.000 A 
ATOM     12  C   UNL     1       3.652  -3.081  -4.095  0.00  0.00    +0.000 A 
ATOM     13  C   UNL     1       2.618  -3.401  -3.241  0.00  0.00    +0.000 A 
ATOM     14  C   UNL     1       1.983  -2.375  -2.543  0.00  0.00    +0.000 A 
ENDBRANCH   1   9
BRANCH   1  15
ATOM     15  C   UNL     1       1.321   1.385  -2.342  0.00  0.00    +0.000 C 
BRANCH  15  16
ATOM     16  C   UNL     1       0.803   2.764  -1.400  0.00  0.00    +0.000 A 
ATOM     17  C   UNL     1       0.270   2.947  -0.103  0.00  0.00    +0.000 A 
ATOM     18  C   UNL     1      -0.208   4.139   0.395  0.00  0.00    +0.000 A 
ATOM     19  C   UNL     1       0.369   5.053  -0.359  0.00  0.00    +0.000 A 
ATOM     20  S   UNL     1       1.029   4.424  -1.867  0.00  0.00    +0.000 S 
ENDBRANCH  15  16
ENDBRANCH   1  15
TORSDOF 4
