REMARK  Name = Thenyldiamine
REMARK  8 active torsions:
REMARK  status: ('A' for Active; 'I' for Inactive)
REMARK    1  A    between atoms: C_1  and  N_2
REMARK    2  A    between atoms: N_2  and  C_3
REMARK    3  A    between atoms: N_2  and  C_4
REMARK    4  A    between atoms: C_4  and  C_5
REMARK    5  A    between atoms: C_5  and  N_6
REMARK    6  A    between atoms: N_6  and  C_7
REMARK    7  A    between atoms: N_6  and  C_13
REMARK    8  A    between atoms: C_7  and  C_8
REMARK                            x       y       z     vdW  Elec       q    Type
REMARK                         _______ _______ _______ _____ _____    ______ ____
ROOT
ATOM      1  N   UNL     1       4.868   2.310  -1.484  0.00  0.00    +0.000 N 
ENDROOT
BRANCH   1   2
ATOM      2  C   UNL     1       6.233   2.588  -1.660  0.00  0.00    +0.000 A 
ATOM      3  C   UNL     1       7.116   1.541  -1.968  0.00  0.00    +0.000 A 
ATOM      4  C   UNL     1       8.483   1.744  -2.080  0.00  0.00    +0.000 A 
ATOM      5  C   UNL     1       8.988   3.021  -1.870  0.00  0.00    +0.000 A 
ATOM      6  C   UNL     1       8.067   4.019  -1.585  0.00  0.00    +0.000 A 
ATOM      7  N   UNL     1       6.722   3.844  -1.499  0.00  0.00    +0.000 NA
ENDBRANCH   1   2
BRANCH   1   8
ATOM      8  C   UNL     1       4.616   1.228  -0.498  0.00  0.00    +0.000 C 
BRANCH   8   9
ATOM      9  C   UNL     1       3.137   0.972  -0.227  0.00  0.00    +0.000 C 
BRANCH   9  11
ATOM     10  C   UNL     1       1.099  -0.207   0.316  0.00  0.00    +0.000 C 
ATOM     11  N   UNL     1       2.581  -0.268   0.348  0.00  0.00    +0.000 NA
ATOM     12  C   UNL     1       2.956  -1.404  -0.512  0.00  0.00    +0.000 C 
ENDBRANCH   9  11
ENDBRANCH   8   9
ENDBRANCH   1   8
BRANCH   1  13
ATOM     13  C   UNL     1       3.884   3.242  -2.108  0.00  0.00    +0.000 C 
BRANCH  13  14
ATOM     14  C   UNL     1       2.340   3.002  -2.143  0.00  0.00    +0.000 A 
ATOM     15  C   UNL     1       1.406   3.925  -1.695  0.00  0.00    +0.000 A 
ATOM     16  S   UNL     1      -0.145   3.251  -1.414  0.00  0.00    +0.000 S 
ATOM     17  C   UNL     1       0.324   1.771  -2.108  0.00  0.00    +0.000 A 
ATOM     18  C   UNL     1       1.611   1.830  -2.617  0.00  0.00    +0.000 A 
ENDBRANCH  13  14
ENDBRANCH   1  13
TORSDOF 6
