REMARK  Name = Theophylline
REMARK  2 active torsions:
REMARK  status: ('A' for Active; 'I' for Inactive)
REMARK    1  A    between atoms: C_1  and  N_2
REMARK    2  A    between atoms: N_10  and  C_11
REMARK                            x       y       z     vdW  Elec       q    Type
REMARK                         _______ _______ _______ _____ _____    ______ ____
ROOT
ATOM      1  C   UNL     1       0.159   2.853   0.003  0.00  0.00    +0.000 C 
ATOM      2  N   UNL     1       0.189   1.405  -0.009  0.00  0.00    +0.000 N 
ATOM      3  C   UNL     1      -0.965   0.664  -0.003  0.00  0.00    +0.000 A 
ATOM      4  C   UNL     1      -0.937  -0.696  -0.009  0.00  0.00    +0.000 A 
ATOM      5  N   UNL     1      -2.245  -1.084  -0.002  0.00  0.00    +0.000 N 
ATOM      6  C   UNL     1      -2.996   0.063   0.018  0.00  0.00    +0.000 A 
ATOM      7  N   UNL     1      -2.239   1.141   0.013  0.00  0.00    +0.000 NA
ATOM      8  C   UNL     1       0.260  -1.458  -0.010  0.00  0.00    +0.000 A 
ATOM      9  O   UNL     1       0.257  -2.685  -0.021  0.00  0.00    +0.000 OA
ATOM     10  N   UNL     1       1.407  -0.658   0.009  0.00  0.00    +0.000 N 
ATOM     11  C   UNL     1       2.700  -1.312   0.062  0.00  0.00    +0.000 C 
ATOM     12  C   UNL     1       1.423   0.752  -0.005  0.00  0.00    +0.000 A 
ATOM     13  O   UNL     1       2.485   1.382  -0.006  0.00  0.00    +0.000 OA
ATOM     14  H   UNL     1      -2.592  -2.035  -0.005  0.00  0.00    +0.000 HD
ENDROOT
TORSDOF 0
