REMARK  Name = Thiamylal
REMARK  7 active torsions:
REMARK  status: ('A' for Active; 'I' for Inactive)
REMARK    1  A    between atoms: C_1  and  C_2
REMARK    2  A    between atoms: C_2  and  C_3
REMARK    3  A    between atoms: C_3  and  C_4
REMARK    4  A    between atoms: C_4  and  C_5
REMARK    5  A    between atoms: C_4  and  C_6
REMARK    6  A    between atoms: C_6  and  C_7
REMARK    7  A    between atoms: C_7  and  C_8
REMARK                            x       y       z     vdW  Elec       q    Type
REMARK                         _______ _______ _______ _____ _____    ______ ____
ROOT
ATOM      1  C   UNL     1       5.111  -0.150  -2.982  0.00  0.00    +0.000 C 
ATOM      2  C   UNL     1       4.989  -1.590  -3.454  0.00  0.00    +0.000 C 
ATOM      3  O   UNL     1       5.931  -2.376  -3.613  0.00  0.00    +0.000 OA
ATOM      4  N   UNL     1       3.702  -2.002  -3.629  0.00  0.00    +0.000 N 
ATOM      5  C   UNL     1       2.842  -1.210  -4.327  0.00  0.00    +0.000 C 
ATOM      6  S   UNL     1       1.640  -1.846  -5.274  0.00  0.00    +0.000 S 
ATOM      7  N   UNL     1       3.002   0.136  -4.165  0.00  0.00    +0.000 N 
ATOM      8  C   UNL     1       4.200   0.727  -3.839  0.00  0.00    +0.000 C 
ATOM      9  O   UNL     1       4.450   1.881  -4.192  0.00  0.00    +0.000 OA
ATOM     10  H   UNL     1       3.531  -2.997  -3.609  0.00  0.00    +0.000 HD
ATOM     11  H   UNL     1       2.212   0.747  -4.328  0.00  0.00    +0.000 HD
ENDROOT
BRANCH   1  12
ATOM     12  C   UNL     1       4.615  -0.110  -1.471  0.00  0.00    +0.000 C 
ATOM     13  C   UNL     1       5.178  -1.300  -0.668  0.00  0.00    +0.000 C 
BRANCH  12  14
ATOM     14  C   UNL     1       3.079  -0.058  -1.333  0.00  0.00    +0.000 C 
BRANCH  14  16
ATOM     15  C   UNL     1       1.017  -0.011   0.002  0.00  0.00    +0.000 C 
ATOM     16  C   UNL     1       2.535  -0.008   0.076  0.00  0.00    +0.000 C 
ENDBRANCH  14  16
ENDBRANCH  12  14
ENDBRANCH   1  12
BRANCH   1  17
ATOM     17  C   UNL     1       6.571   0.345  -3.044  0.00  0.00    +0.000 C 
BRANCH  17  18
ATOM     18  C   UNL     1       7.153   0.327  -4.431  0.00  0.00    +0.000 C 
ATOM     19  C   UNL     1       8.407   0.700  -4.699  0.00  0.00    +0.000 C 
ENDBRANCH  17  18
ENDBRANCH   1  17
TORSDOF 5
