REMARK  Name = Thiamine
REMARK  7 active torsions:
REMARK  status: ('A' for Active; 'I' for Inactive)
REMARK    1  A    between atoms: C_1  and  C_2
REMARK    2  A    between atoms: C_3  and  C_4
REMARK    3  A    between atoms: C_4  and  C_5
REMARK    4  A    between atoms: C_5  and  O_6
REMARK    5  A    between atoms: N_9  and  C_10
REMARK    6  A    between atoms: C_10  and  C_11
REMARK    7  A    between atoms: C_14  and  C_15
REMARK                            x       y       z     vdW  Elec       q    Type
REMARK                         _______ _______ _______ _____ _____    ______ ____
ROOT
ATOM      1  C   UNL     1       2.870   2.436   0.067  0.00  0.00    +0.000 C 
ENDROOT
BRANCH   1   2
ATOM      2  C   UNL     1       1.404   2.678   0.156  0.00  0.00    +0.000 A 
ATOM      3  C   UNL     1       0.694   3.130  -0.941  0.00  0.00    +0.000 A 
ATOM      4  N   UNL     1      -0.641   3.096  -1.031  0.00  0.00    +0.000 NA
ATOM      5  C   UNL     1      -1.310   2.641   0.046  0.00  0.00    +0.000 A 
ATOM      6  C   UNL     1      -2.804   2.575  -0.039  0.00  0.00    +0.000 C 
ATOM      7  N   UNL     1      -0.706   2.229   1.178  0.00  0.00    +0.000 NA
ATOM      8  C   UNL     1       0.632   2.276   1.240  0.00  0.00    +0.000 A 
ATOM      9  N   UNL     1       1.206   1.763   2.397  0.00  0.00    +0.000 N 
ATOM     10  H   UNL     1       0.458   1.301   2.928  0.00  0.00    +0.000 HD
ATOM     11  H   UNL     1       2.007   1.152   2.330  0.00  0.00    +0.000 HD
ENDBRANCH   1   2
BRANCH   1  17
ATOM     12  C   UNL     1       1.054  -0.126  -0.206  0.00  0.00    +0.000 C 
ATOM     13  C   UNL     1       2.533  -0.178  -0.101  0.00  0.00    +0.000 A 
ATOM     14  C   UNL     1       3.314  -1.321  -0.011  0.00  0.00    +0.000 A 
ATOM     15  S   UNL     1       4.978  -0.896   0.052  0.00  0.00    +0.000 S 
ATOM     16  C   UNL     1       4.615   0.770   0.037  0.00  0.00    +0.000 A 
ATOM     17  N   UNL     1       3.306   0.999   0.002  0.00  0.00    +0.000 N 
BRANCH  14  18
ATOM     18  C   UNL     1       2.948  -2.785   0.031  0.00  0.00    +0.000 C 
BRANCH  18  19
ATOM     19  C   UNL     1       1.450  -3.047   0.036  0.00  0.00    +0.000 C 
BRANCH  19  20
ATOM     20  O   UNL     1       1.136  -4.417   0.097  0.00  0.00    +0.000 OA
ATOM     21  H   UNL     1       1.262  -4.776  -0.800  0.00  0.00    +0.000 HD
ENDBRANCH  19  20
ENDBRANCH  18  19
ENDBRANCH  14  18
ENDBRANCH   1  17
TORSDOF 5
