REMARK  Name = Thiabendazole
REMARK  1 active torsions:
REMARK  status: ('A' for Active; 'I' for Inactive)
REMARK    1  A    between atoms: C_9  and  C_10
REMARK                            x       y       z     vdW  Elec       q    Type
REMARK                         _______ _______ _______ _____ _____    ______ ____
ROOT
ATOM      1  N   UNL     1      -1.508  -1.117   0.082  0.00  0.00    +0.000 N 
ATOM      2  C   UNL     1      -0.197  -0.715   0.024  0.00  0.00    +0.000 A 
ATOM      3  C   UNL     1       1.005  -1.425   0.022  0.00  0.00    +0.000 A 
ATOM      4  C   UNL     1       2.181  -0.665  -0.001  0.00  0.00    +0.000 A 
ATOM      5  C   UNL     1       2.143   0.732  -0.014  0.00  0.00    +0.000 A 
ATOM      6  C   UNL     1       0.921   1.417  -0.028  0.00  0.00    +0.000 A 
ATOM      7  C   UNL     1      -0.267   0.672  -0.036  0.00  0.00    +0.000 A 
ATOM      8  N   UNL     1      -1.574   1.093  -0.121  0.00  0.00    +0.000 NA
ATOM      9  C   UNL     1      -2.297   0.002  -0.004  0.00  0.00    +0.000 A 
ATOM     10  H   UNL     1      -1.851  -2.062   0.089  0.00  0.00    +0.000 HD
ENDROOT
BRANCH   9  11
ATOM     11  C   UNL     1      -3.781  -0.055   0.005  0.00  0.00    +0.000 A 
ATOM     12  C   UNL     1      -4.547   0.601  -0.936  0.00  0.00    +0.000 A 
ATOM     13  S   UNL     1      -6.209   0.324  -0.618  0.00  0.00    +0.000 S 
ATOM     14  C   UNL     1      -5.768  -0.605   0.757  0.00  0.00    +0.000 A 
ATOM     15  N   UNL     1      -4.480  -0.813   0.929  0.00  0.00    +0.000 NA
ENDBRANCH   9  11
TORSDOF 1
