REMARK  Name = Thiethylperazine
REMARK  8 active torsions:
REMARK  status: ('A' for Active; 'I' for Inactive)
REMARK    1  A    between atoms: C_1  and  C_2
REMARK    2  A    between atoms: C_2  and  S_3
REMARK    3  A    between atoms: S_3  and  C_4
REMARK    4  A    between atoms: N_15  and  C_16
REMARK    5  A    between atoms: C_16  and  C_17
REMARK    6  A    between atoms: C_17  and  C_18
REMARK    7  A    between atoms: C_18  and  N_19
REMARK    8  A    between atoms: N_22  and  C_23
REMARK                            x       y       z     vdW  Elec       q    Type
REMARK                         _______ _______ _______ _____ _____    ______ ____
ROOT
ATOM      1  C   UNL     1       4.868  -1.206   1.095  0.00  0.00    +0.000 A 
ATOM      2  C   UNL     1       5.578  -1.010  -0.093  0.00  0.00    +0.000 A 
ATOM      3  C   UNL     1       6.984  -0.946  -0.102  0.00  0.00    +0.000 A 
ATOM      4  C   UNL     1       7.682  -1.178   1.102  0.00  0.00    +0.000 A 
ATOM      5  S   UNL     1       9.466  -1.180   1.163  0.00  0.00    +0.000 S 
ATOM      6  C   UNL     1       9.803  -0.037  -0.162  0.00  0.00    +0.000 A 
ATOM      7  C   UNL     1      10.964   0.733  -0.120  0.00  0.00    +0.000 A 
ATOM      8  C   UNL     1      11.252   1.646  -1.140  0.00  0.00    +0.000 A 
ATOM      9  C   UNL     1      10.373   1.802  -2.206  0.00  0.00    +0.000 A 
ATOM     10  C   UNL     1       9.194   1.090  -2.210  0.00  0.00    +0.000 A 
ATOM     11  C   UNL     1       8.903   0.137  -1.226  0.00  0.00    +0.000 A 
ATOM     12  N   UNL     1       7.656  -0.505  -1.289  0.00  0.00    +0.000 N 
ATOM     13  C   UNL     1       6.976  -1.401   2.288  0.00  0.00    +0.000 A 
ATOM     14  C   UNL     1       5.579  -1.395   2.285  0.00  0.00    +0.000 A 
ENDROOT
BRANCH   1  15
ATOM     15  S   UNL     1       3.085  -1.281   1.168  0.00  0.00    +0.000 S 
BRANCH  15  17
ATOM     16  C   UNL     1       1.041   0.097   0.013  0.00  0.00    +0.000 C 
ATOM     17  C   UNL     1       2.562   0.058   0.036  0.00  0.00    +0.000 C 
ENDBRANCH  15  17
ENDBRANCH   1  15
BRANCH  12  18
ATOM     18  C   UNL     1       7.514  -1.480  -2.390  0.00  0.00    +0.000 C 
BRANCH  18  19
ATOM     19  C   UNL     1       8.370  -1.351  -3.659  0.00  0.00    +0.000 C 
BRANCH  19  20
ATOM     20  C   UNL     1       7.905  -2.193  -4.850  0.00  0.00    +0.000 C 
BRANCH  20  21
ATOM     21  N   UNL     1       7.839  -3.618  -4.567  0.00  0.00    +0.000 NA
ATOM     22  C   UNL     1       7.716  -4.391  -5.824  0.00  0.00    +0.000 C 
ATOM     23  C   UNL     1       7.701  -5.912  -5.529  0.00  0.00    +0.000 C 
ATOM     24  N   UNL     1       6.718  -6.358  -4.509  0.00  0.00    +0.000 NA
ATOM     25  C   UNL     1       5.350  -6.299  -5.024  0.00  0.00    +0.000 C 
ATOM     26  C   UNL     1       6.822  -5.480  -3.336  0.00  0.00    +0.000 C 
ATOM     27  C   UNL     1       6.695  -4.006  -3.726  0.00  0.00    +0.000 C 
ENDBRANCH  20  21
ENDBRANCH  19  20
ENDBRANCH  18  19
ENDBRANCH  12  18
TORSDOF 6
