REMARK  Name = Thimerosal
REMARK  5 active torsions:
REMARK  status: ('A' for Active; 'I' for Inactive)
REMARK    1  A    between atoms: C_2  and  C_3
REMARK    2  A    between atoms: C_3  and  HG_4
REMARK    3  A    between atoms: HG_4  and  S_5
REMARK    4  A    between atoms: S_5  and  C_6
REMARK    5  A    between atoms: C_11  and  C_12
REMARK                            x       y       z     vdW  Elec       q    Type
REMARK                         _______ _______ _______ _____ _____    ______ ____
ROOT
ATOM      1 NA   UNL     1       0.923  -0.063  -0.010  0.00  0.00    +0.000 Na
ENDROOT
TORSDOF 0
REMARK  Name = Thimerosal
REMARK  5 active torsions:
REMARK  status: ('A' for Active; 'I' for Inactive)
REMARK    1  A    between atoms: C_2  and  C_3
REMARK    2  A    between atoms: C_3  and  HG_4
REMARK    3  A    between atoms: HG_4  and  S_5
REMARK    4  A    between atoms: S_5  and  C_6
REMARK    5  A    between atoms: C_11  and  C_12
REMARK                            x       y       z     vdW  Elec       q    Type
REMARK                         _______ _______ _______ _____ _____    ______ ____
ROOT
ATOM      1  C   UNL     2       5.233   4.117  -2.251  0.00  0.00    +0.000 A 
ATOM      2  C   UNL     2       6.275   3.635  -1.475  0.00  0.00    +0.000 A 
ATOM      3  C   UNL     2       6.873   4.613  -0.647  0.00  0.00    +0.000 A 
ATOM      4  C   UNL     2       6.746   5.917  -0.817  0.00  0.00    +0.000 A 
ATOM      5  C   UNL     2       5.742   6.327  -1.649  0.00  0.00    +0.000 A 
ATOM      6  C   UNL     2       5.025   5.420  -2.392  0.00  0.00    +0.000 A 
ENDROOT
BRANCH   6   7
ATOM      7  C   UNL     2       3.985   5.915  -3.383  0.00  0.00    +0.000 C 
ATOM      8  O   UNL     2       3.757   7.308  -3.539  0.00  0.00    +0.000 OA
ATOM      9  O   UNL     2       3.318   5.081  -4.073  0.00  0.00    +0.000 OA
ENDBRANCH   6   7
BRANCH   1  10
ATOM     10  S   UNL     2       4.050   3.003  -3.049  0.00  0.00    +0.000 S 
BRANCH  10  11
ATOM     11 HG   UNL     2       3.260   1.425  -1.467  0.00  0.00    +0.000 Hg
BRANCH  11  13
ATOM     12  C   UNL     2       1.047   0.040  -0.079  0.00  0.00    +0.000 C 
ATOM     13  C   UNL     2       2.567   0.040  -0.079  0.00  0.00    +0.000 C 
ENDBRANCH  11  13
ENDBRANCH  10  11
ENDBRANCH   1  10
TORSDOF 4
