REMARK  Name = Thiohexam
REMARK  3 active torsions:
REMARK  status: ('A' for Active; 'I' for Inactive)
REMARK    1  A    between atoms: C_4  and  N_7
REMARK    2  A    between atoms: N_7  and  S_8
REMARK    3  A    between atoms: S_8  and  C_9
REMARK                            x       y       z     vdW  Elec       q    Type
REMARK                         _______ _______ _______ _____ _____    ______ ____
ROOT
ATOM      1  S   UNL     1       3.395  -2.218   0.426  0.00  0.00    +0.000 S 
ENDROOT
BRANCH   1   2
ATOM      2  C   UNL     1       4.883  -2.534  -0.452  0.00  0.00    +0.000 A 
ATOM      3  N   UNL     1       5.255  -3.777  -0.653  0.00  0.00    +0.000 NA
ATOM      4  C   UNL     1       6.519  -3.812  -1.215  0.00  0.00    +0.000 A 
ATOM      5  C   UNL     1       7.245  -4.972  -1.557  0.00  0.00    +0.000 A 
ATOM      6  C   UNL     1       8.521  -4.854  -2.119  0.00  0.00    +0.000 A 
ATOM      7  C   UNL     1       9.081  -3.598  -2.333  0.00  0.00    +0.000 A 
ATOM      8  C   UNL     1       8.385  -2.434  -1.993  0.00  0.00    +0.000 A 
ATOM      9  C   UNL     1       7.100  -2.563  -1.438  0.00  0.00    +0.000 A 
ATOM     10  S   UNL     1       6.005  -1.332  -0.928  0.00  0.00    +0.000 S 
ENDBRANCH   1   2
BRANCH   1  11
ATOM     11  N   UNL     1       2.784  -0.784  -0.209  0.00  0.00    +0.000 NA
ATOM     12  H   UNL     1       3.432  -0.023  -0.002  0.00  0.00    +0.000 HD
BRANCH  11  16
ATOM     13  C   UNL     1      -1.421   0.345  -0.227  0.00  0.00    +0.000 C 
ATOM     14  C   UNL     1      -0.395   1.388   0.211  0.00  0.00    +0.000 C 
ATOM     15  C   UNL     1       1.027   1.030  -0.249  0.00  0.00    +0.000 C 
ATOM     16  C   UNL     1       1.427  -0.381   0.231  0.00  0.00    +0.000 C 
ATOM     17  C   UNL     1       0.383  -1.403  -0.255  0.00  0.00    +0.000 C 
ATOM     18  C   UNL     1      -1.018  -1.050   0.227  0.00  0.00    +0.000 C 
ENDBRANCH  11  16
ENDBRANCH   1  11
TORSDOF 3
