REMARK  Name = Thiothixene
REMARK  8 active torsions:
REMARK  status: ('A' for Active; 'I' for Inactive)
REMARK    1  A    between atoms: C_1  and  N_2
REMARK    2  A    between atoms: N_2  and  C_3
REMARK    3  A    between atoms: N_2  and  S_4
REMARK    4  A    between atoms: S_4  and  C_7
REMARK    5  A    between atoms: C_19  and  C_20
REMARK    6  A    between atoms: C_20  and  C_21
REMARK    7  A    between atoms: C_21  and  N_22
REMARK    8  A    between atoms: N_25  and  C_26
REMARK                            x       y       z     vdW  Elec       q    Type
REMARK                         _______ _______ _______ _____ _____    ______ ____
ROOT
ATOM      1  C   UNL     1       4.844  -1.564  -0.453  0.00  0.00    +0.000 A 
ATOM      2  C   UNL     1       5.555  -1.802   0.705  0.00  0.00    +0.000 A 
ATOM      3  C   UNL     1       6.947  -1.811   0.856  0.00  0.00    +0.000 A 
ATOM      4  C   UNL     1       7.641  -1.606  -0.333  0.00  0.00    +0.000 A 
ATOM      5  S   UNL     1       9.399  -1.589  -0.474  0.00  0.00    +0.000 S 
ATOM      6  C   UNL     1       9.960  -1.846   1.187  0.00  0.00    +0.000 A 
ATOM      7  C   UNL     1      11.357  -1.870   1.314  0.00  0.00    +0.000 A 
ATOM      8  C   UNL     1      11.963  -2.064   2.547  0.00  0.00    +0.000 A 
ATOM      9  C   UNL     1      11.179  -2.235   3.672  0.00  0.00    +0.000 A 
ATOM     10  C   UNL     1       9.793  -2.213   3.556  0.00  0.00    +0.000 A 
ATOM     11  C   UNL     1       9.142  -2.021   2.316  0.00  0.00    +0.000 A 
ATOM     12  C   UNL     1       7.644  -2.026   2.187  0.00  0.00    +0.000 C 
ATOM     13  C   UNL     1       6.942  -2.242   3.330  0.00  0.00    +0.000 C 
ATOM     14  C   UNL     1       6.938  -1.411  -1.549  0.00  0.00    +0.000 A 
ATOM     15  C   UNL     1       5.541  -1.391  -1.618  0.00  0.00    +0.000 A 
ENDROOT
BRANCH   1  16
ATOM     16  S   UNL     1       3.076  -1.682  -0.324  0.00  0.00    +0.000 S 
ATOM     17  O   UNL     1       2.751  -2.463   0.864  0.00  0.00    +0.000 OA
ATOM     18  O   UNL     1       2.575  -2.077  -1.614  0.00  0.00    +0.000 OA
BRANCH  16  20
ATOM     19  C   UNL     1       1.079   0.004  -0.002  0.00  0.00    +0.000 C 
ATOM     20  N   UNL     1       2.563  -0.076   0.017  0.00  0.00    +0.000 NA
ATOM     21  C   UNL     1       3.071   0.520   1.281  0.00  0.00    +0.000 C 
ENDBRANCH  16  20
ENDBRANCH   1  16
BRANCH  13  22
ATOM     22  C   UNL     1       5.468  -2.337   3.455  0.00  0.00    +0.000 C 
BRANCH  22  23
ATOM     23  C   UNL     1       4.840  -2.430   4.809  0.00  0.00    +0.000 C 
BRANCH  23  24
ATOM     24  N   UNL     1       4.956  -1.145   5.485  0.00  0.00    +0.000 NA
ATOM     25  C   UNL     1       4.432  -1.305   6.841  0.00  0.00    +0.000 C 
ATOM     26  C   UNL     1       4.602   0.001   7.628  0.00  0.00    +0.000 C 
ATOM     27  N   UNL     1       3.996   1.195   6.992  0.00  0.00    +0.000 NA
ATOM     28  C   UNL     1       2.538   1.122   7.062  0.00  0.00    +0.000 C 
ATOM     29  C   UNL     1       4.415   1.276   5.582  0.00  0.00    +0.000 C 
ATOM     30  C   UNL     1       4.224  -0.042   4.817  0.00  0.00    +0.000 C 
ENDBRANCH  23  24
ENDBRANCH  22  23
ENDBRANCH  13  22
TORSDOF 5
