REMARK  Name = Thioridazine
REMARK  6 active torsions:
REMARK  status: ('A' for Active; 'I' for Inactive)
REMARK    1  A    between atoms: C_1  and  S_2
REMARK    2  A    between atoms: S_2  and  C_3
REMARK    3  A    between atoms: N_14  and  C_15
REMARK    4  A    between atoms: C_15  and  C_16
REMARK    5  A    between atoms: C_16  and  C_17
REMARK    6  A    between atoms: N_22  and  C_23
REMARK                            x       y       z     vdW  Elec       q    Type
REMARK                         _______ _______ _______ _____ _____    ______ ____
ROOT
ATOM      1  C   UNL     1       3.300   0.512  -1.500  0.00  0.00    +0.000 A 
ATOM      2  C   UNL     1       3.970  -0.378  -2.350  0.00  0.00    +0.000 A 
ATOM      3  C   UNL     1       4.352   0.007  -3.649  0.00  0.00    +0.000 A 
ATOM      4  C   UNL     1       4.099   1.327  -4.068  0.00  0.00    +0.000 A 
ATOM      5  S   UNL     1       4.554   1.880  -5.710  0.00  0.00    +0.000 S 
ATOM      6  C   UNL     1       4.357   0.335  -6.588  0.00  0.00    +0.000 A 
ATOM      7  C   UNL     1       3.979   0.363  -7.940  0.00  0.00    +0.000 A 
ATOM      8  C   UNL     1       3.796  -0.829  -8.646  0.00  0.00    +0.000 A 
ATOM      9  C   UNL     1       3.952  -2.046  -8.011  0.00  0.00    +0.000 A 
ATOM     10  C   UNL     1       4.254  -2.069  -6.652  0.00  0.00    +0.000 A 
ATOM     11  C   UNL     1       4.531  -0.892  -5.936  0.00  0.00    +0.000 A 
ATOM     12  N   UNL     1       4.835  -0.967  -4.562  0.00  0.00    +0.000 N 
ATOM     13  C   UNL     1       3.468   2.229  -3.204  0.00  0.00    +0.000 A 
ATOM     14  C   UNL     1       3.062   1.817  -1.931  0.00  0.00    +0.000 A 
ENDROOT
BRANCH   1  16
ATOM     15  C   UNL     1       1.016   0.031   0.024  0.00  0.00    +0.000 C 
ATOM     16  S   UNL     1       2.829  -0.031   0.136  0.00  0.00    +0.000 S 
ENDBRANCH   1  16
BRANCH  12  17
ATOM     17  C   UNL     1       6.046  -1.689  -4.099  0.00  0.00    +0.000 C 
BRANCH  17  18
ATOM     18  C   UNL     1       6.818  -2.460  -5.177  0.00  0.00    +0.000 C 
BRANCH  18  19
ATOM     19  C   UNL     1       7.925  -3.413  -4.706  0.00  0.00    +0.000 C 
ATOM     20  C   UNL     1       8.552  -2.868  -3.412  0.00  0.00    +0.000 C 
ATOM     21  C   UNL     1       9.655  -3.766  -2.902  0.00  0.00    +0.000 C 
ATOM     22  C   UNL     1       9.102  -5.172  -2.729  0.00  0.00    +0.000 C 
ATOM     23  C   UNL     1       8.510  -5.683  -4.039  0.00  0.00    +0.000 C 
ATOM     24  N   UNL     1       7.430  -4.810  -4.538  0.00  0.00    +0.000 NA
ATOM     25  C   UNL     1       6.929  -5.403  -5.795  0.00  0.00    +0.000 C 
ENDBRANCH  18  19
ENDBRANCH  17  18
ENDBRANCH  12  17
TORSDOF 4
