REMARK  Name = Thiotepa
REMARK  3 active torsions:
REMARK  status: ('A' for Active; 'I' for Inactive)
REMARK    1  A    between atoms: P_2  and  N_3
REMARK    2  A    between atoms: P_2  and  N_6
REMARK    3  A    between atoms: P_2  and  N_9
REMARK                            x       y       z     vdW  Elec       q    Type
REMARK                         _______ _______ _______ _____ _____    ______ ____
ROOT
ATOM      1  S   UNL     1       1.085  -0.001  -0.052  0.00  0.00    +0.000 S 
ATOM      2  P   UNL     1       2.983  -0.001  -0.052  0.00  0.00    +0.000 P 
ENDROOT
BRANCH   2   3
ATOM      3  N   UNL     1       3.099   1.295   1.125  0.00  0.00    +0.000 NA
ATOM      4  C   UNL     1       3.798   2.563   0.785  0.00  0.00    +0.000 C 
ATOM      5  C   UNL     1       2.328   2.563   0.809  0.00  0.00    +0.000 C 
ENDBRANCH   2   3
BRANCH   2   6
ATOM      6  N   UNL     1       3.083  -1.634   0.604  0.00  0.00    +0.000 NA
ATOM      7  C   UNL     1       2.272  -2.705  -0.113  0.00  0.00    +0.000 C 
ATOM      8  C   UNL     1       3.743  -2.749  -0.133  0.00  0.00    +0.000 C 
ENDBRANCH   2   6
BRANCH   2   9
ATOM      9  N   UNL     1       4.763  -0.001  -0.052  0.00  0.00    +0.000 NA
ATOM     10  C   UNL     1       5.466  -0.652  -1.180  0.00  0.00    +0.000 C 
ATOM     11  C   UNL     1       5.424   0.818  -1.098  0.00  0.00    +0.000 C 
ENDBRANCH   2   9
TORSDOF 3
