REMARK  Name = Thiopental
REMARK  7 active torsions:
REMARK  status: ('A' for Active; 'I' for Inactive)
REMARK    1  A    between atoms: C_1  and  C_2
REMARK    2  A    between atoms: C_2  and  C_3
REMARK    3  A    between atoms: C_3  and  C_4
REMARK    4  A    between atoms: C_4  and  C_5
REMARK    5  A    between atoms: C_4  and  C_6
REMARK    6  A    between atoms: C_6  and  C_7
REMARK    7  A    between atoms: C_7  and  C_8
REMARK                            x       y       z     vdW  Elec       q    Type
REMARK                         _______ _______ _______ _____ _____    ______ ____
ROOT
ATOM      1  C   UNL     1       4.982  -2.283   1.812  0.00  0.00    +0.000 C 
ATOM      2  C   UNL     1       4.175  -3.537   1.471  0.00  0.00    +0.000 C 
ATOM      3  O   UNL     1       3.442  -4.153   2.246  0.00  0.00    +0.000 OA
ATOM      4  N   UNL     1       4.308  -3.975   0.191  0.00  0.00    +0.000 N 
ATOM      5  C   UNL     1       5.565  -4.034  -0.313  0.00  0.00    +0.000 C 
ATOM      6  S   UNL     1       6.076  -5.337  -1.205  0.00  0.00    +0.000 S 
ATOM      7  N   UNL     1       6.372  -2.968  -0.042  0.00  0.00    +0.000 N 
ATOM      8  C   UNL     1       6.382  -2.437   1.231  0.00  0.00    +0.000 C 
ATOM      9  O   UNL     1       7.421  -2.036   1.761  0.00  0.00    +0.000 OA
ATOM     10  H   UNL     1       3.681  -4.733  -0.046  0.00  0.00    +0.000 HD
ATOM     11  H   UNL     1       7.211  -2.858  -0.595  0.00  0.00    +0.000 HD
ENDROOT
BRANCH   1  12
ATOM     12  C   UNL     1       4.427  -1.063   0.979  0.00  0.00    +0.000 C 
ATOM     13  C   UNL     1       5.004   0.276   1.474  0.00  0.00    +0.000 C 
BRANCH  12  14
ATOM     14  C   UNL     1       2.898  -1.044   0.943  0.00  0.00    +0.000 C 
BRANCH  14  16
ATOM     15  C   UNL     1       0.867   0.048   0.039  0.00  0.00    +0.000 C 
ATOM     16  C   UNL     1       2.376   0.066   0.046  0.00  0.00    +0.000 C 
ENDBRANCH  14  16
ENDBRANCH  12  14
ENDBRANCH   1  12
BRANCH   1  17
ATOM     17  C   UNL     1       4.884  -1.996   3.327  0.00  0.00    +0.000 C 
ATOM     18  C   UNL     1       5.406  -3.100   4.231  0.00  0.00    +0.000 C 
ENDBRANCH   1  17
TORSDOF 4
