REMARK  Name = Thiosulfuric acid
REMARK  2 active torsions:
REMARK  status: ('A' for Active; 'I' for Inactive)
REMARK    1  A    between atoms: O_1  and  S_2
REMARK    2  A    between atoms: S_2  and  O_3
REMARK                            x       y       z     vdW  Elec       q    Type
REMARK                         _______ _______ _______ _____ _____    ______ ____
ROOT
ATOM      1  S   UNL     1       2.735  -0.074  -0.051  0.00  0.00    +0.000 S 
ATOM      2  O   UNL     1       3.147  -0.348   1.300  0.00  0.00    +0.000 OA
ATOM      3  S   UNL     1       3.379  -1.295  -1.232  0.00  0.00    +0.000 S 
ENDROOT
BRANCH   1   4
ATOM      4  O   UNL     1       1.138  -0.031  -0.050  0.00  0.00    +0.000 OA
ATOM      5  H   UNL     1       0.799   0.461   0.722  0.00  0.00    +0.000 HD
ENDBRANCH   1   4
BRANCH   1   6
ATOM      6  O   UNL     1       3.228   1.407  -0.396  0.00  0.00    +0.000 OA
ATOM      7  H   UNL     1       3.061   2.016   0.348  0.00  0.00    +0.000 HD
ENDBRANCH   1   6
TORSDOF 2
