REMARK  Name = Thiram
REMARK  9 active torsions:
REMARK  status: ('A' for Active; 'I' for Inactive)
REMARK    1  A    between atoms: C_1  and  N_2
REMARK    2  A    between atoms: N_2  and  C_3
REMARK    3  A    between atoms: N_2  and  C_4
REMARK    4  A    between atoms: C_4  and  S_6
REMARK    5  A    between atoms: S_6  and  S_7
REMARK    6  A    between atoms: S_7  and  C_8
REMARK    7  A    between atoms: C_8  and  N_10
REMARK    8  A    between atoms: N_10  and  C_11
REMARK    9  A    between atoms: N_10  and  C_12
REMARK                            x       y       z     vdW  Elec       q    Type
REMARK                         _______ _______ _______ _____ _____    ______ ____
ROOT
ATOM      1  S   UNL     1       4.909   1.120  -0.434  0.00  0.00    +0.000 S 
ENDROOT
BRANCH   1   2
ATOM      2  C   UNL     1       3.119   1.199  -0.467  0.00  0.00    +0.000 C 
ATOM      3  S   UNL     1       2.272   2.553  -1.024  0.00  0.00    +0.000 S 
BRANCH   2   5
ATOM      4  C   UNL     1       0.996  -0.044   0.044  0.00  0.00    +0.000 C 
ATOM      5  N   UNL     1       2.460   0.033   0.013  0.00  0.00    +0.000 N 
ATOM      6  C   UNL     1       3.167  -1.153   0.501  0.00  0.00    +0.000 C 
ENDBRANCH   2   5
ENDBRANCH   1   2
BRANCH   1   7
ATOM      7  S   UNL     1       5.651   2.918  -1.174  0.00  0.00    +0.000 S 
BRANCH   7   8
ATOM      8  C   UNL     1       7.443   2.855  -1.148  0.00  0.00    +0.000 C 
ATOM      9  S   UNL     1       8.277   1.493  -0.588  0.00  0.00    +0.000 S 
BRANCH   8  10
ATOM     10  N   UNL     1       8.103   4.021  -1.628  0.00  0.00    +0.000 N 
ATOM     11  C   UNL     1       7.434   5.229  -2.125  0.00  0.00    +0.000 C 
ATOM     12  C   UNL     1       9.567   4.136  -1.675  0.00  0.00    +0.000 C 
ENDBRANCH   8  10
ENDBRANCH   7   8
ENDBRANCH   1   7
TORSDOF 5
