REMARK  Name = Thonzonium
REMARK  25 active torsions:
REMARK  status: ('A' for Active; 'I' for Inactive)
REMARK    1  A    between atoms: C_1  and  C_2
REMARK    2  A    between atoms: C_2  and  C_3
REMARK    3  A    between atoms: C_3  and  C_4
REMARK    4  A    between atoms: C_4  and  C_5
REMARK    5  A    between atoms: C_5  and  C_6
REMARK    6  A    between atoms: C_6  and  C_7
REMARK    7  A    between atoms: C_7  and  C_8
REMARK    8  A    between atoms: C_8  and  C_9
REMARK    9  A    between atoms: C_9  and  C_10
REMARK   10  A    between atoms: C_10  and  C_11
REMARK   11  A    between atoms: C_11  and  C_12
REMARK   12  A    between atoms: C_12  and  C_13
REMARK   13  A    between atoms: C_13  and  C_14
REMARK   14  A    between atoms: C_14  and  C_15
REMARK   15  A    between atoms: C_15  and  C_16
REMARK   16  A    between atoms: C_16  and  N_17
REMARK   17  A    between atoms: N_17  and  C_18
REMARK   18  A    between atoms: N_17  and  C_19
REMARK   19  A    between atoms: N_17  and  C_20
REMARK   20  A    between atoms: C_20  and  C_21
REMARK   21  A    between atoms: C_21  and  N_22
REMARK   22  A    between atoms: N_22  and  C_23
REMARK   23  A    between atoms: C_23  and  C_24
REMARK   24  A    between atoms: C_27  and  O_28
REMARK   25  A    between atoms: O_28  and  C_29
REMARK                            x       y       z     vdW  Elec       q    Type
REMARK                         _______ _______ _______ _____ _____    ______ ____
ROOT
ATOM      1  N   UNL     1      16.851 -10.112   5.767  0.00  0.00    +0.000 N 
ATOM      2  C   UNL     1      16.414 -10.082   7.196  0.00  0.00    +0.000 C 
ATOM      3  C   UNL     1      16.426 -11.312   4.920  0.00  0.00    +0.000 C 
ENDROOT
BRANCH   1   4
ATOM      4  C   UNL     1      18.368 -10.079   5.778  0.00  0.00    +0.000 C 
BRANCH   4   5
ATOM      5  C   UNL     1      19.197 -11.224   6.349  0.00  0.00    +0.000 C 
BRANCH   5   6
ATOM      6  N   UNL     1      20.651 -11.097   6.181  0.00  0.00    +0.000 N 
ATOM      7  C   UNL     1      21.314 -12.184   6.743  0.00  0.00    +0.000 A 
ATOM      8  N   UNL     1      22.346 -11.980   7.584  0.00  0.00    +0.000 NA
ATOM      9  C   UNL     1      22.869 -13.059   8.199  0.00  0.00    +0.000 A 
ATOM     10  C   UNL     1      22.456 -14.354   7.983  0.00  0.00    +0.000 A 
ATOM     11  C   UNL     1      21.422 -14.473   7.085  0.00  0.00    +0.000 A 
ATOM     12  N   UNL     1      20.827 -13.423   6.498  0.00  0.00    +0.000 NA
BRANCH   6  13
ATOM     13  C   UNL     1      21.513 -10.041   5.591  0.00  0.00    +0.000 C 
BRANCH  13  14
ATOM     14  C   UNL     1      20.843  -8.919   4.786  0.00  0.00    +0.000 A 
ATOM     15  C   UNL     1      20.965  -7.564   5.107  0.00  0.00    +0.000 A 
ATOM     16  C   UNL     1      20.044  -6.615   4.622  0.00  0.00    +0.000 A 
ATOM     17  C   UNL     1      19.027  -6.991   3.744  0.00  0.00    +0.000 A 
ATOM     18  C   UNL     1      19.031  -8.296   3.277  0.00  0.00    +0.000 A 
ATOM     19  C   UNL     1      20.010  -9.221   3.703  0.00  0.00    +0.000 A 
BRANCH  17  20
ATOM     20  O   UNL     1      18.180  -5.982   3.375  0.00  0.00    +0.000 OA
ATOM     21  C   UNL     1      16.925  -6.353   2.844  0.00  0.00    +0.000 C 
ENDBRANCH  17  20
ENDBRANCH  13  14
ENDBRANCH   6  13
ENDBRANCH   5   6
ENDBRANCH   4   5
ENDBRANCH   1   4
BRANCH   1  22
ATOM     22  C   UNL     1      16.352  -8.842   5.057  0.00  0.00    +0.000 C 
BRANCH  22  23
ATOM     23  C   UNL     1      14.839  -8.759   5.003  0.00  0.00    +0.000 C 
BRANCH  23  24
ATOM     24  C   UNL     1      14.393  -7.541   4.237  0.00  0.00    +0.000 C 
BRANCH  24  25
ATOM     25  C   UNL     1      12.908  -7.476   4.175  0.00  0.00    +0.000 C 
BRANCH  25  26
ATOM     26  C   UNL     1      12.544  -6.211   3.437  0.00  0.00    +0.000 C 
BRANCH  26  27
ATOM     27  C   UNL     1      11.045  -6.171   3.404  0.00  0.00    +0.000 C 
BRANCH  27  28
ATOM     28  C   UNL     1      10.583  -4.924   2.703  0.00  0.00    +0.000 C 
BRANCH  28  29
ATOM     29  C   UNL     1       9.072  -4.929   2.706  0.00  0.00    +0.000 C 
BRANCH  29  30
ATOM     30  C   UNL     1       8.570  -3.686   2.011  0.00  0.00    +0.000 C 
BRANCH  30  31
ATOM     31  C   UNL     1       7.056  -3.689   2.012  0.00  0.00    +0.000 C 
BRANCH  31  32
ATOM     32  C   UNL     1       6.548  -2.443   1.316  0.00  0.00    +0.000 C 
BRANCH  32  33
ATOM     33  C   UNL     1       5.031  -2.438   1.313  0.00  0.00    +0.000 C 
BRANCH  33  34
ATOM     34  C   UNL     1       4.519  -1.190   0.615  0.00  0.00    +0.000 C 
BRANCH  34  35
ATOM     35  C   UNL     1       3.000  -1.182   0.610  0.00  0.00    +0.000 C 
BRANCH  35  37
ATOM     36  C   UNL     1       0.959   0.072  -0.091  0.00  0.00    +0.000 C 
ATOM     37  C   UNL     1       2.476   0.065  -0.087  0.00  0.00    +0.000 C 
ENDBRANCH  35  37
ENDBRANCH  34  35
ENDBRANCH  33  34
ENDBRANCH  32  33
ENDBRANCH  31  32
ENDBRANCH  30  31
ENDBRANCH  29  30
ENDBRANCH  28  29
ENDBRANCH  27  28
ENDBRANCH  26  27
ENDBRANCH  25  26
ENDBRANCH  24  25
ENDBRANCH  23  24
ENDBRANCH  22  23
ENDBRANCH   1  22
TORSDOF 21
