REMARK  Name = Thonzylamine
REMARK  9 active torsions:
REMARK  status: ('A' for Active; 'I' for Inactive)
REMARK    1  A    between atoms: C_1  and  O_2
REMARK    2  A    between atoms: O_2  and  C_3
REMARK    3  A    between atoms: C_6  and  C_7
REMARK    4  A    between atoms: C_7  and  N_8
REMARK    5  A    between atoms: N_8  and  C_9
REMARK    6  A    between atoms: C_9  and  C_10
REMARK    7  A    between atoms: C_10  and  N_11
REMARK    8  A    between atoms: N_11  and  C_12
REMARK    9  A    between atoms: N_11  and  C_13
REMARK                            x       y       z     vdW  Elec       q    Type
REMARK                         _______ _______ _______ _____ _____    ______ ____
ROOT
ATOM      1  N   UNL     1       4.640  -1.596   5.700  0.00  0.00    +0.000 N 
ATOM      2  C   UNL     1       5.216  -1.884   6.964  0.00  0.00    +0.000 A 
ATOM      3  N   UNL     1       5.326  -3.170   7.362  0.00  0.00    +0.000 NA
ATOM      4  C   UNL     1       5.905  -3.430   8.558  0.00  0.00    +0.000 A 
ATOM      5  C   UNL     1       6.332  -2.459   9.423  0.00  0.00    +0.000 A 
ATOM      6  C   UNL     1       6.147  -1.180   8.967  0.00  0.00    +0.000 A 
ATOM      7  N   UNL     1       5.633  -0.872   7.750  0.00  0.00    +0.000 NA
ENDROOT
BRANCH   1   8
ATOM      8  C   UNL     1       5.428  -0.561   4.913  0.00  0.00    +0.000 C 
BRANCH   8  12
ATOM      9  C   UNL     1       3.478   0.319   1.118  0.00  0.00    +0.000 A 
ATOM     10  C   UNL     1       4.537   1.160   1.445  0.00  0.00    +0.000 A 
ATOM     11  C   UNL     1       5.290   0.909   2.662  0.00  0.00    +0.000 A 
ATOM     12  C   UNL     1       5.046  -0.191   3.472  0.00  0.00    +0.000 A 
ATOM     13  C   UNL     1       4.557  -1.196   2.693  0.00  0.00    +0.000 A 
ATOM     14  C   UNL     1       3.558  -0.834   1.775  0.00  0.00    +0.000 A 
BRANCH   9  16
ATOM     15  C   UNL     1       1.255   0.161   0.099  0.00  0.00    +0.000 C 
ATOM     16  O   UNL     1       2.653   0.525   0.039  0.00  0.00    +0.000 OA
ENDBRANCH   9  16
ENDBRANCH   8  12
ENDBRANCH   1   8
BRANCH   1  17
ATOM     17  C   UNL     1       3.396  -2.427   5.474  0.00  0.00    +0.000 C 
BRANCH  17  18
ATOM     18  C   UNL     1       2.591  -2.295   4.150  0.00  0.00    +0.000 C 
BRANCH  18  19
ATOM     19  N   UNL     1       1.320  -2.958   3.742  0.00  0.00    +0.000 NA
ATOM     20  C   UNL     1       0.269  -2.392   4.558  0.00  0.00    +0.000 C 
ATOM     21  C   UNL     1       0.978  -2.672   2.324  0.00  0.00    +0.000 C 
ENDBRANCH  18  19
ENDBRANCH  17  18
ENDBRANCH   1  17
TORSDOF 6
