REMARK  Name = Threonine
REMARK  6 active torsions:
REMARK  status: ('A' for Active; 'I' for Inactive)
REMARK    1  A    between atoms: CG2_1  and  CB_2
REMARK    2  A    between atoms: CB_2  and  OG1_3
REMARK    3  A    between atoms: CB_2  and  CA_4
REMARK    4  A    between atoms: CA_4  and  N_5
REMARK    5  A    between atoms: CA_4  and  C_6
REMARK    6  A    between atoms: C_6  and  O_7
REMARK                            x       y       z     vdW  Elec       q    Type
REMARK                         _______ _______ _______ _____ _____    ______ ____
ROOT
ATOM      1  CA  THR A   1       3.049   0.757  -1.193  0.00  0.00    +0.000 C 
ENDROOT
BRANCH   1   2
ATOM      2  N   THR A   1       2.596  -0.114  -0.079  0.00  0.00    +0.000 NA
ATOM      3  H1  THR A   1       2.770   0.327   0.824  0.00  0.00    +0.000 HD
ATOM      4  H2  THR A   1       2.890  -1.080  -0.159  0.00  0.00    +0.000 HD
ENDBRANCH   1   2
BRANCH   1   6
ATOM      5  CG2 THR A   1       2.444   3.099  -2.223  0.00  0.00    +0.000 C 
ATOM      6  CB  THR A   1       2.331   2.124  -1.052  0.00  0.00    +0.000 C 
BRANCH   6   7
ATOM      7  OG1 THR A   1       2.657   2.750   0.197  0.00  0.00    +0.000 OA
ATOM      8  HG1 THR A   1       3.255   3.499   0.032  0.00  0.00    +0.000 HD
ENDBRANCH   6   7
ENDBRANCH   1   6
BRANCH   1   9
ATOM      9  C   THR A   1       4.586   0.841  -1.243  0.00  0.00    +0.000 C 
ATOM     10  OXT THR A   1       5.212   1.460  -2.098  0.00  0.00    +0.000 OA
BRANCH   9  11
ATOM     11  O   THR A   1       5.233   0.116  -0.295  0.00  0.00    +0.000 OA
ATOM     12  H   THR A   1       4.613  -0.317   0.321  0.00  0.00    +0.000 HD
ENDBRANCH   9  11
ENDBRANCH   1   9
TORSDOF 5
