REMARK  Name = Thymol
REMARK  5 active torsions:
REMARK  status: ('A' for Active; 'I' for Inactive)
REMARK    1  A    between atoms: C_1  and  C_2
REMARK    2  A    between atoms: C_2  and  C_3
REMARK    3  A    between atoms: C_2  and  C_4
REMARK    4  A    between atoms: C_7  and  C_8
REMARK    5  A    between atoms: C_10  and  O_11
REMARK                            x       y       z     vdW  Elec       q    Type
REMARK                         _______ _______ _______ _____ _____    ______ ____
ROOT
ATOM      1  C   UNL     1       3.013   1.310   0.524  0.00  0.00    +0.000 A 
ATOM      2  C   UNL     1       3.968   1.337   1.558  0.00  0.00    +0.000 A 
ATOM      3  C   UNL     1       4.351   2.554   2.143  0.00  0.00    +0.000 A 
ATOM      4  C   UNL     1       3.788   3.755   1.706  0.00  0.00    +0.000 A 
ATOM      5  C   UNL     1       4.155   5.082   2.295  0.00  0.00    +0.000 C 
ATOM      6  C   UNL     1       2.853   3.734   0.669  0.00  0.00    +0.000 A 
ATOM      7  C   UNL     1       2.491   2.528   0.080  0.00  0.00    +0.000 A 
ENDROOT
BRANCH   1   9
ATOM      8  C   UNL     1       1.041  -0.171  -0.034  0.00  0.00    +0.000 C 
ATOM      9  C   UNL     1       2.568  -0.015  -0.075  0.00  0.00    +0.000 C 
ATOM     10  C   UNL     1       3.107  -0.177  -1.498  0.00  0.00    +0.000 C 
ENDBRANCH   1   9
BRANCH   7  11
ATOM     11  O   UNL     1       1.612   2.555  -0.966  0.00  0.00    +0.000 OA
ATOM     12  H   UNL     1       1.226   3.440  -1.035  0.00  0.00    +0.000 HD
ENDBRANCH   7  11
TORSDOF 2
