REMARK  Name = Tiagabine
REMARK  9 active torsions:
REMARK  status: ('A' for Active; 'I' for Inactive)
REMARK    1  A    between atoms: C_1  and  C_2
REMARK    2  A    between atoms: C_3  and  C_7
REMARK    3  A    between atoms: C_7  and  C_20
REMARK    4  A    between atoms: C_8  and  C_9
REMARK    5  A    between atoms: C_9  and  C_10
REMARK    6  A    between atoms: C_10  and  N_11
REMARK    7  A    between atoms: C_15  and  C_17
REMARK    8  A    between atoms: C_17  and  O_18
REMARK    9  A    between atoms: C_21  and  C_22
REMARK                            x       y       z     vdW  Elec       q    Type
REMARK                         _______ _______ _______ _____ _____    ______ ____
ROOT
ATOM      1  C   UNL     1       0.528  -2.496  -0.030  0.00  0.00    +0.000 C 
ATOM      2  C   UNL     1      -0.465  -3.420   0.000  0.00  0.00    +0.000 C 
ENDROOT
BRANCH   1   5
ATOM      3  C   UNL     1       2.712  -0.068  -0.172  0.00  0.00    +0.000 C 
ATOM      4  C   UNL     1       1.231   0.030  -0.096  0.00  0.00    +0.000 A 
ATOM      5  C   UNL     1       0.298  -1.021  -0.052  0.00  0.00    +0.000 A 
ATOM      6  S   UNL     1      -1.278  -0.258  -0.006  0.00  0.00    +0.000 S 
ATOM      7  C   UNL     1      -0.723   1.320  -0.006  0.00  0.00    +0.000 A 
ATOM      8  C   UNL     1       0.639   1.341  -0.025  0.00  0.00    +0.000 A 
ENDBRANCH   1   5
BRANCH   1   9
ATOM      9  C   UNL     1       1.852  -3.082   0.083  0.00  0.00    +0.000 A 
ATOM     10  C   UNL     1       2.783  -2.902   1.108  0.00  0.00    +0.000 A 
ATOM     11  C   UNL     1       2.560  -2.056   2.323  0.00  0.00    +0.000 C 
ATOM     12  C   UNL     1       4.065  -3.447   0.764  0.00  0.00    +0.000 A 
ATOM     13  C   UNL     1       4.061  -4.098  -0.447  0.00  0.00    +0.000 A 
ATOM     14  S   UNL     1       2.528  -4.035  -1.197  0.00  0.00    +0.000 S 
ENDBRANCH   1   9
BRANCH   2  15
ATOM     15  C   UNL     1      -1.908  -3.099   0.014  0.00  0.00    +0.000 C 
BRANCH  15  16
ATOM     16  C   UNL     1      -2.926  -4.212  -0.026  0.00  0.00    +0.000 C 
BRANCH  16  17
ATOM     17  N   UNL     1      -4.315  -3.689  -0.035  0.00  0.00    +0.000 NA
ATOM     18  C   UNL     1      -4.454  -2.322  -0.579  0.00  0.00    +0.000 C 
ATOM     19  C   UNL     1      -5.889  -1.831  -0.534  0.00  0.00    +0.000 C 
ATOM     20  C   UNL     1      -6.797  -2.780  -1.297  0.00  0.00    +0.000 C 
ATOM     21  C   UNL     1      -6.611  -4.231  -0.828  0.00  0.00    +0.000 C 
ATOM     22  C   UNL     1      -5.137  -4.612  -0.812  0.00  0.00    +0.000 C 
BRANCH  21  23
ATOM     23  C   UNL     1      -7.449  -5.148  -1.696  0.00  0.00    +0.000 C 
ATOM     24  O   UNL     1      -8.666  -4.993  -1.818  0.00  0.00    +0.000 OA
BRANCH  23  25
ATOM     25  O   UNL     1      -6.830  -6.146  -2.354  0.00  0.00    +0.000 OA
ATOM     26  H   UNL     1      -5.869  -6.264  -2.252  0.00  0.00    +0.000 HD
ENDBRANCH  23  25
ENDBRANCH  21  23
ENDBRANCH  16  17
ENDBRANCH  15  16
ENDBRANCH   2  15
TORSDOF 7
