REMARK  Name = Tiaprofenic acid
REMARK  6 active torsions:
REMARK  status: ('A' for Active; 'I' for Inactive)
REMARK    1  A    between atoms: C_1  and  C_2
REMARK    2  A    between atoms: C_2  and  C_3
REMARK    3  A    between atoms: C_2  and  C_6
REMARK    4  A    between atoms: C_3  and  O_4
REMARK    5  A    between atoms: C_9  and  C_11
REMARK    6  A    between atoms: C_11  and  C_13
REMARK                            x       y       z     vdW  Elec       q    Type
REMARK                         _______ _______ _______ _____ _____    ______ ____
ROOT
ATOM      1  C   UNL     1       2.992  -1.292   0.870  0.00  0.00    +0.000 A 
ATOM      2  C   UNL     1       3.957  -1.486   1.838  0.00  0.00    +0.000 A 
ATOM      3  C   UNL     1       4.005  -2.801   2.339  0.00  0.00    +0.000 A 
ATOM      4  C   UNL     1       3.260  -3.685   1.600  0.00  0.00    +0.000 A 
ATOM      5  S   UNL     1       2.415  -2.865   0.359  0.00  0.00    +0.000 S 
ENDROOT
BRANCH   1   7
ATOM      6  C   UNL     1       0.944  -0.011   0.092  0.00  0.00    +0.000 C 
ATOM      7  C   UNL     1       2.480  -0.030   0.166  0.00  0.00    +0.000 C 
BRANCH   7   8
ATOM      8  C   UNL     1       2.913   1.340   0.711  0.00  0.00    +0.000 C 
ATOM      9  O   UNL     1       2.586   2.385   0.141  0.00  0.00    +0.000 OA
BRANCH   8  10
ATOM     10  O   UNL     1       3.633   1.446   1.837  0.00  0.00    +0.000 OA
ATOM     11  H   UNL     1       3.639   0.680   2.425  0.00  0.00    +0.000 HD
ENDBRANCH   8  10
ENDBRANCH   7   8
ENDBRANCH   1   7
BRANCH   4  12
ATOM     12  C   UNL     1       3.206  -5.129   1.765  0.00  0.00    +0.000 C 
ATOM     13  O   UNL     1       2.623  -5.911   1.017  0.00  0.00    +0.000 OA
BRANCH  12  14
ATOM     14  C   UNL     1       3.944  -5.716   2.924  0.00  0.00    +0.000 A 
ATOM     15  C   UNL     1       4.873  -6.733   2.694  0.00  0.00    +0.000 A 
ATOM     16  C   UNL     1       5.441  -7.405   3.778  0.00  0.00    +0.000 A 
ATOM     17  C   UNL     1       5.157  -7.001   5.084  0.00  0.00    +0.000 A 
ATOM     18  C   UNL     1       4.287  -5.937   5.315  0.00  0.00    +0.000 A 
ATOM     19  C   UNL     1       3.667  -5.304   4.238  0.00  0.00    +0.000 A 
ENDBRANCH  12  14
ENDBRANCH   4  12
TORSDOF 5
