REMARK  Name = Tibolone
REMARK  4 active torsions:
REMARK  status: ('A' for Active; 'I' for Inactive)
REMARK    1  A    between atoms: C_5  and  O_6
REMARK    2  A    between atoms: C_5  and  C_7
REMARK    3  A    between atoms: C_9  and  C_10
REMARK    4  A    between atoms: C_23  and  C_25
REMARK                            x       y       z     vdW  Elec       q    Type
REMARK                         _______ _______ _______ _____ _____    ______ ____
ROOT
ATOM      1  C   UNL     1       1.799   0.139   0.275  0.00  0.00    +0.000 C 
ATOM      2  C   UNL     1       2.223   0.514   1.577  0.00  0.00    +0.000 C 
ATOM      3  C   UNL     1       3.176   0.565   0.440  0.00  0.00    +0.000 C 
ATOM      4  C   UNL     1       2.211   0.723  -1.408  0.00  0.00    +0.000 C 
ATOM      5  C   UNL     1       2.724   1.621  -0.528  0.00  0.00    +0.000 C 
ATOM      6  C   UNL     1       2.250   2.973  -0.175  0.00  0.00    +0.000 C 
ATOM      7  C   UNL     1       4.369   1.300  -1.253  0.00  0.00    +0.000 C 
ATOM      8  C   UNL     1       4.478  -0.237  -1.822  0.00  0.00    +0.000 C 
ATOM      9  C   UNL     1       3.995  -1.443  -0.899  0.00  0.00    +0.000 C 
ATOM     10  C   UNL     1       4.267  -2.817  -1.415  0.00  0.00    +0.000 C 
ATOM     11  C   UNL     1       3.514  -3.878  -1.044  0.00  0.00    +0.000 C 
ATOM     12  C   UNL     1       3.795  -5.256  -1.563  0.00  0.00    +0.000 C 
ATOM     13  C   UNL     1       4.798  -5.176  -2.694  0.00  0.00    +0.000 C 
ATOM     14  O   UNL     1       4.647  -5.758  -3.765  0.00  0.00    +0.000 OA
ATOM     15  C   UNL     1       6.002  -4.327  -2.401  0.00  0.00    +0.000 C 
ATOM     16  C   UNL     1       5.500  -2.914  -2.274  0.00  0.00    +0.000 C 
ATOM     17  C   UNL     1       2.322  -3.811  -0.100  0.00  0.00    +0.000 C 
ATOM     18  C   UNL     1       2.191  -2.496   0.661  0.00  0.00    +0.000 C 
ATOM     19  C   UNL     1       3.155  -2.501   1.864  0.00  0.00    +0.000 C 
ATOM     20  C   UNL     1       2.433  -1.403  -0.371  0.00  0.00    +0.000 C 
ENDROOT
BRANCH   4  21
ATOM     21  O   UNL     1       2.432   1.633  -2.550  0.00  0.00    +0.000 OA
ATOM     22  H   UNL     1       3.178   1.501  -3.146  0.00  0.00    +0.000 HD
ENDBRANCH   4  21
BRANCH   4  23
ATOM     23  C   UNL     1       0.626   0.924  -1.547  0.00  0.00    +0.000 C 
ATOM     24  C   UNL     1      -0.567   1.166  -1.676  0.00  0.00    +0.000 C 
ENDBRANCH   4  23
TORSDOF 2
