REMARK  Name = Ticagrelor
REMARK  13 active torsions:
REMARK  status: ('A' for Active; 'I' for Inactive)
REMARK    1  A    between atoms: C_1  and  C_2
REMARK    2  A    between atoms: C_2  and  C_3
REMARK    3  A    between atoms: C_3  and  S_4
REMARK    4  A    between atoms: S_4  and  C_5
REMARK    5  A    between atoms: N_11  and  C_12
REMARK    6  A    between atoms: C_14  and  O_15
REMARK    7  A    between atoms: O_15  and  C_16
REMARK    8  A    between atoms: C_16  and  C_17
REMARK    9  A    between atoms: C_17  and  O_18
REMARK   10  A    between atoms: C_19  and  O_20
REMARK   11  A    between atoms: C_21  and  O_22
REMARK   12  A    between atoms: N_24  and  C_25
REMARK   13  A    between atoms: C_27  and  C_28
REMARK                            x       y       z     vdW  Elec       q    Type
REMARK                         _______ _______ _______ _____ _____    ______ ____
ROOT
ATOM      1  C   UNL     1       5.225  -2.781  -2.004  0.00  0.00    +0.000 A 
ATOM      2  N   UNL     1       4.844  -4.038  -1.619  0.00  0.00    +0.000 NA
ATOM      3  C   UNL     1       5.259  -4.983  -2.501  0.00  0.00    +0.000 A 
ATOM      4  C   UNL     1       5.986  -4.727  -3.664  0.00  0.00    +0.000 A 
ATOM      5  N   UNL     1       6.204  -5.910  -4.325  0.00  0.00    +0.000 NA
ATOM      6  N   UNL     1       5.650  -6.897  -3.626  0.00  0.00    +0.000 NA
ATOM      7  N   UNL     1       5.087  -6.375  -2.510  0.00  0.00    +0.000 N 
ATOM      8  C   UNL     1       6.348  -3.384  -3.977  0.00  0.00    +0.000 A 
ATOM      9  N   UNL     1       7.076  -3.060  -5.145  0.00  0.00    +0.000 N 
ATOM     10  N   UNL     1       5.945  -2.432  -3.100  0.00  0.00    +0.000 NA
ATOM     11  H   UNL     1       7.308  -3.890  -5.688  0.00  0.00    +0.000 HD
ENDROOT
BRANCH   7  12
ATOM     12  C   UNL     1       4.393  -7.283  -1.586  0.00  0.00    +0.000 C 
ATOM     13  C   UNL     1       5.259  -8.440  -0.972  0.00  0.00    +0.000 C 
ATOM     14  C   UNL     1       4.617  -9.798  -1.363  0.00  0.00    +0.000 C 
ATOM     15  C   UNL     1       3.738  -9.452  -2.566  0.00  0.00    +0.000 C 
ATOM     16  C   UNL     1       3.202  -8.056  -2.215  0.00  0.00    +0.000 C 
BRANCH  15  17
ATOM     17  O   UNL     1       2.682 -10.404  -2.734  0.00  0.00    +0.000 OA
ATOM     18  H   UNL     1       2.036 -10.285  -2.015  0.00  0.00    +0.000 HD
ENDBRANCH  15  17
BRANCH  16  19
ATOM     19  O   UNL     1       2.130  -8.201  -1.255  0.00  0.00    +0.000 OA
ATOM     20  H   UNL     1       2.433  -8.701  -0.477  0.00  0.00    +0.000 HD
ENDBRANCH  16  19
BRANCH  14  21
ATOM     21  O   UNL     1       5.613 -10.789  -1.640  0.00  0.00    +0.000 OA
BRANCH  21  22
ATOM     22  C   UNL     1       5.054 -12.052  -2.031  0.00  0.00    +0.000 C 
BRANCH  22  23
ATOM     23  C   UNL     1       6.154 -13.065  -2.336  0.00  0.00    +0.000 C 
BRANCH  23  24
ATOM     24  O   UNL     1       5.599 -14.307  -2.758  0.00  0.00    +0.000 OA
ATOM     25  H   UNL     1       5.013 -14.629  -2.052  0.00  0.00    +0.000 HD
ENDBRANCH  23  24
ENDBRANCH  22  23
ENDBRANCH  21  22
ENDBRANCH  14  21
ENDBRANCH   7  12
BRANCH   9  26
ATOM     26  C   UNL     1       7.521  -1.752  -5.674  0.00  0.00    +0.000 C 
ATOM     27  C   UNL     1       8.456  -0.870  -4.887  0.00  0.00    +0.000 C 
ATOM     28  C   UNL     1       7.093  -0.354  -5.282  0.00  0.00    +0.000 C 
BRANCH  28  29
ATOM     29  C   UNL     1       6.965   0.822  -6.270  0.00  0.00    +0.000 A 
ATOM     30  C   UNL     1       7.577   0.904  -7.541  0.00  0.00    +0.000 A 
ATOM     31  C   UNL     1       7.339   1.992  -8.393  0.00  0.00    +0.000 A 
ATOM     32  F   UNL     1       7.920   2.019  -9.607  0.00  0.00    +0.000 F 
ATOM     33  C   UNL     1       6.503   3.030  -8.016  0.00  0.00    +0.000 A 
ATOM     34  F   UNL     1       6.258   4.054  -8.843  0.00  0.00    +0.000 F 
ATOM     35  C   UNL     1       5.905   3.004  -6.764  0.00  0.00    +0.000 A 
ATOM     36  C   UNL     1       6.147   1.919  -5.911  0.00  0.00    +0.000 A 
ENDBRANCH  28  29
ENDBRANCH   9  26
BRANCH   1  37
ATOM     37  S   UNL     1       4.895  -1.397  -0.903  0.00  0.00    +0.000 S 
BRANCH  37  38
ATOM     38  C   UNL     1       3.074  -1.274  -0.989  0.00  0.00    +0.000 C 
BRANCH  38  40
ATOM     39  C   UNL     1       1.028  -0.065  -0.105  0.00  0.00    +0.000 C 
ATOM     40  C   UNL     1       2.554  -0.109  -0.127  0.00  0.00    +0.000 C 
ENDBRANCH  38  40
ENDBRANCH  37  38
ENDBRANCH   1  37
TORSDOF 12
