REMARK  Name = Ticarcillin
REMARK  9 active torsions:
REMARK  status: ('A' for Active; 'I' for Inactive)
REMARK    1  A    between atoms: C_4  and  C_5
REMARK    2  A    between atoms: C_4  and  C_6
REMARK    3  A    between atoms: CA_7  and  C_24
REMARK    4  A    between atoms: CA_11  and  N_12
REMARK    5  A    between atoms: C_13  and  C_15
REMARK    6  A    between atoms: C_15  and  C_16
REMARK    7  A    between atoms: C_15  and  C_19
REMARK    8  A    between atoms: C_16  and  O_17
REMARK    9  A    between atoms: C_24  and  O_25
REMARK                            x       y       z     vdW  Elec       q    Type
REMARK                         _______ _______ _______ _____ _____    ______ ____
ROOT
ATOM      1  C   UNL     1       2.934   1.367  -7.371  0.00  0.00    +0.000 C 
ATOM      2  S   UNL     1       4.173   0.051  -7.112  0.00  0.00    +0.000 S 
ATOM      3  C   UNL     1       2.958  -1.244  -7.712  0.00  0.00    +0.000 C 
ATOM      4  C   UNL     1       3.417  -2.580  -7.123  0.00  0.00    +0.000 C 
ATOM      5  C   UNL     1       3.060  -1.212  -9.249  0.00  0.00    +0.000 C 
ATOM      6  CA  UNL     1       1.605  -0.777  -7.126  0.00  0.00    +0.000 C 
ATOM      7  N   UNL     1       1.641   0.702  -7.127  0.00  0.00    +0.000 N 
ATOM      8  C   UNL     1       1.399   1.417  -5.979  0.00  0.00    +0.000 C 
ATOM      9  O   UNL     1       0.605   1.226  -5.080  0.00  0.00    +0.000 OA
ATOM     10  CA  UNL     1       2.636   2.331  -6.211  0.00  0.00    +0.000 C 
ENDROOT
BRANCH  10  11
ATOM     11  N   UNL     1       3.645   2.426  -5.104  0.00  0.00    +0.000 N 
ATOM     12  C   UNL     1       3.405   3.281  -4.045  0.00  0.00    +0.000 C 
ATOM     13  O   UNL     1       2.392   3.983  -4.025  0.00  0.00    +0.000 OA
ATOM     14  H   UNL     1       4.460   1.820  -5.112  0.00  0.00    +0.000 HD
BRANCH  12  15
ATOM     15  C   UNL     1       4.472   3.377  -2.957  0.00  0.00    +0.000 C 
BRANCH  15  16
ATOM     16  C   UNL     1       5.103   4.762  -2.936  0.00  0.00    +0.000 A 
ATOM     17  C   UNL     1       6.455   5.022  -2.794  0.00  0.00    +0.000 A 
ATOM     18  S   UNL     1       6.805   6.699  -2.751  0.00  0.00    +0.000 S 
ATOM     19  C   UNL     1       5.160   7.109  -2.929  0.00  0.00    +0.000 A 
ATOM     20  C   UNL     1       4.365   5.994  -3.027  0.00  0.00    +0.000 A 
ENDBRANCH  15  16
BRANCH  15  21
ATOM     21  C   UNL     1       3.891   2.972  -1.610  0.00  0.00    +0.000 C 
ATOM     22  O   UNL     1       3.744   1.793  -1.303  0.00  0.00    +0.000 OA
BRANCH  21  23
ATOM     23  O   UNL     1       3.533   3.951  -0.747  0.00  0.00    +0.000 OA
ATOM     24  H   UNL     1       3.642   4.871  -1.051  0.00  0.00    +0.000 HD
ENDBRANCH  21  23
ENDBRANCH  15  21
ENDBRANCH  12  15
ENDBRANCH  10  11
BRANCH   6  25
ATOM     25  C   UNL     1       0.286  -1.302  -7.748  0.00  0.00    +0.000 C 
ATOM     26  OXT UNL     1      -0.817  -0.904  -7.391  0.00  0.00    +0.000 OA
BRANCH  25  27
ATOM     27  O   UNL     1       0.340  -2.255  -8.701  0.00  0.00    +0.000 OA
ATOM     28  H   UNL     1       1.153  -2.755  -8.866  0.00  0.00    +0.000 HD
ENDBRANCH  25  27
ENDBRANCH   6  25
TORSDOF 7
