REMARK  Name = Ticlopidine
REMARK  2 active torsions:
REMARK  status: ('A' for Active; 'I' for Inactive)
REMARK    1  A    between atoms: C_7  and  C_8
REMARK    2  A    between atoms: C_8  and  N_9
REMARK                            x       y       z     vdW  Elec       q    Type
REMARK                         _______ _______ _______ _____ _____    ______ ____
ROOT
ATOM      1  N   UNL     1      -1.910   2.291  -0.037  0.00  0.00    +0.000 NA
ATOM      2  C   UNL     1      -2.406   1.752   1.242  0.00  0.00    +0.000 C 
ATOM      3  C   UNL     1      -3.919   1.521   1.314  0.00  0.00    +0.000 C 
ATOM      4  C   UNL     1      -4.449   1.054  -0.002  0.00  0.00    +0.000 A 
ATOM      5  C   UNL     1      -3.768   1.159  -1.198  0.00  0.00    +0.000 A 
ATOM      6  C   UNL     1      -2.398   1.735  -1.313  0.00  0.00    +0.000 C 
ATOM      7  C   UNL     1      -4.469   0.495  -2.253  0.00  0.00    +0.000 A 
ATOM      8  C   UNL     1      -5.683   0.002  -1.834  0.00  0.00    +0.000 A 
ATOM      9  S   UNL     1      -5.950   0.278  -0.166  0.00  0.00    +0.000 S 
ENDROOT
BRANCH   1  10
ATOM     10  C   UNL     1      -0.456   2.289  -0.045  0.00  0.00    +0.000 C 
BRANCH  10  17
ATOM     11 CL   UNL     1      -1.839  -1.026  -0.079  0.00  0.00    +0.000 Cl
ATOM     12  C   UNL     1      -0.223  -0.396  -0.034  0.00  0.00    +0.000 A 
ATOM     13  C   UNL     1       0.654  -1.482  -0.010  0.00  0.00    +0.000 A 
ATOM     14  C   UNL     1       2.010  -1.300   0.018  0.00  0.00    +0.000 A 
ATOM     15  C   UNL     1       2.536  -0.015   0.024  0.00  0.00    +0.000 A 
ATOM     16  C   UNL     1       1.679   1.092   0.005  0.00  0.00    +0.000 A 
ATOM     17  C   UNL     1       0.278   0.941  -0.022  0.00  0.00    +0.000 A 
ENDBRANCH  10  17
ENDBRANCH   1  10
TORSDOF 2
