REMARK  Name = Tigecycline
REMARK  18 active torsions:
REMARK  status: ('A' for Active; 'I' for Inactive)
REMARK    1  A    between atoms: C_6  and  O_7
REMARK    2  A    between atoms: C_8  and  N_9
REMARK    3  A    between atoms: C_10  and  C_12
REMARK    4  A    between atoms: C_12  and  N_13
REMARK    5  A    between atoms: N_13  and  C_14
REMARK    6  A    between atoms: C_14  and  C_15
REMARK    7  A    between atoms: C_14  and  C_16
REMARK    8  A    between atoms: C_14  and  C_17
REMARK    9  A    between atoms: C_19  and  N_20
REMARK   10  A    between atoms: N_20  and  C_21
REMARK   11  A    between atoms: N_20  and  C_22
REMARK   12  A    between atoms: C_26  and  O_27
REMARK   13  A    between atoms: C_28  and  O_29
REMARK   14  A    between atoms: C_32  and  C_33
REMARK   15  A    between atoms: C_36  and  O_37
REMARK   16  A    between atoms: C_38  and  N_39
REMARK   17  A    between atoms: N_39  and  C_40
REMARK   18  A    between atoms: N_39  and  C_41
REMARK                            x       y       z     vdW  Elec       q    Type
REMARK                         _______ _______ _______ _____ _____    ______ ____
ROOT
ATOM      1  C   UNL     1       2.118   0.018  -0.229  0.00  0.00    +0.000 C 
ATOM      2  C   UNL     1       2.453  -0.692   1.033  0.00  0.00    +0.000 C 
ATOM      3  C   UNL     1       2.284  -2.145   1.130  0.00  0.00    +0.000 A 
ATOM      4  C   UNL     1       2.393  -2.837  -0.078  0.00  0.00    +0.000 A 
ATOM      5  C   UNL     1       2.262  -4.202  -0.092  0.00  0.00    +0.000 A 
ATOM      6  C   UNL     1       2.056  -4.922   1.082  0.00  0.00    +0.000 A 
ATOM      7  C   UNL     1       1.968  -4.189   2.306  0.00  0.00    +0.000 A 
ATOM      8  C   UNL     1       2.094  -2.768   2.389  0.00  0.00    +0.000 A 
ATOM      9  C   UNL     1       2.657  -2.154  -1.375  0.00  0.00    +0.000 C 
ATOM     10  O   UNL     1       2.943  -2.787  -2.393  0.00  0.00    +0.000 OA
ATOM     11  C   UNL     1       2.599  -0.688  -1.430  0.00  0.00    +0.000 C 
ATOM     12  C   UNL     1       2.963  -0.032  -2.544  0.00  0.00    +0.000 C 
ATOM     13  C   UNL     1       2.899   1.476  -2.650  0.00  0.00    +0.000 C 
ATOM     14  C   UNL     1       4.212   2.093  -3.081  0.00  0.00    +0.000 C 
ATOM     15  O   UNL     1       5.287   1.497  -2.925  0.00  0.00    +0.000 OA
ATOM     16  C   UNL     1       4.233   3.569  -3.369  0.00  0.00    +0.000 C 
ATOM     17  C   UNL     1       4.338   4.039  -2.125  0.00  0.00    +0.000 C 
ATOM     18  C   UNL     1       2.970   3.713  -1.159  0.00  0.00    +0.000 C 
ATOM     19  C   UNL     1       2.572   2.183  -1.314  0.00  0.00    +0.000 C 
ATOM     20  C   UNL     1       2.769   1.397  -0.050  0.00  0.00    +0.000 C 
ENDROOT
BRANCH  16  21
ATOM     21  C   UNL     1       3.146   4.526  -3.780  0.00  0.00    +0.000 C 
ATOM     22  N   UNL     1       3.386   5.887  -3.600  0.00  0.00    +0.000 N 
ATOM     23  O   UNL     1       2.019   4.165  -4.134  0.00  0.00    +0.000 OA
ATOM     24  H   UNL     1       4.203   6.198  -3.073  0.00  0.00    +0.000 HD
ATOM     25  H   UNL     1       2.571   6.431  -3.341  0.00  0.00    +0.000 HD
ENDBRANCH  16  21
BRANCH   6  26
ATOM     26  N   UNL     1       1.927  -6.350   1.086  0.00  0.00    +0.000 N 
ATOM     27  C   UNL     1       2.059  -7.182  -0.032  0.00  0.00    +0.000 C 
ATOM     28  O   UNL     1       2.388  -6.913  -1.185  0.00  0.00    +0.000 OA
ATOM     29  H   UNL     1       1.758  -6.788   1.984  0.00  0.00    +0.000 HD
BRANCH  27  30
ATOM     30  C   UNL     1       1.856  -8.654   0.203  0.00  0.00    +0.000 C 
BRANCH  30  31
ATOM     31  N   UNL     1       1.965  -9.300  -1.127  0.00  0.00    +0.000 NA
ATOM     32  H   UNL     1       2.793  -8.924  -1.607  0.00  0.00    +0.000 HD
BRANCH  31  33
ATOM     33  C   UNL     1       1.874 -10.739  -1.164  0.00  0.00    +0.000 C 
ATOM     34  C   UNL     1       2.989 -11.338  -0.311  0.00  0.00    +0.000 C 
ATOM     35  C   UNL     1       0.481 -11.117  -0.659  0.00  0.00    +0.000 C 
ATOM     36  C   UNL     1       2.028 -11.228  -2.616  0.00  0.00    +0.000 C 
ENDBRANCH  31  33
ENDBRANCH  30  31
ENDBRANCH  27  30
ENDBRANCH   6  26
BRANCH   8  37
ATOM     37  N   UNL     1       2.067  -2.050   3.594  0.00  0.00    +0.000 N 
ATOM     38  C   UNL     1       2.220  -0.586   3.824  0.00  0.00    +0.000 C 
ATOM     39  C   UNL     1       1.750  -2.691   4.871  0.00  0.00    +0.000 C 
ENDBRANCH   8  37
BRANCH  18  40
ATOM     40  N   UNL     1       1.581   4.337  -1.086  0.00  0.00    +0.000 NA
ATOM     41  C   UNL     1       0.345   3.853  -1.789  0.00  0.00    +0.000 C 
ATOM     42  C   UNL     1       1.431   5.746  -0.847  0.00  0.00    +0.000 C 
ENDBRANCH  18  40
BRANCH   5  43
ATOM     43  O   UNL     1       2.251  -4.798  -1.303  0.00  0.00    +0.000 OA
ATOM     44  H   UNL     1       2.604  -4.263  -2.036  0.00  0.00    +0.000 HD
ENDBRANCH   5  43
BRANCH  12  45
ATOM     45  O   UNL     1       3.337  -0.679  -3.713  0.00  0.00    +0.000 OA
ATOM     46  H   UNL     1       3.365  -1.646  -3.522  0.00  0.00    +0.000 HD
ENDBRANCH  12  45
BRANCH  13  47
ATOM     47  O   UNL     1       1.890   1.687  -3.625  0.00  0.00    +0.000 OA
ATOM     48  H   UNL     1       2.207   1.242  -4.436  0.00  0.00    +0.000 HD
ENDBRANCH  13  47
BRANCH  17  49
ATOM     49  O   UNL     1       5.249   5.153  -2.024  0.00  0.00    +0.000 OA
ATOM     50  H   UNL     1       5.847   5.132  -2.836  0.00  0.00    +0.000 HD
ENDBRANCH  17  49
TORSDOF 11
