REMARK  Name = Tilarginine
REMARK  8 active torsions:
REMARK  status: ('A' for Active; 'I' for Inactive)
REMARK    1  A    between atoms: C_1  and  N_2
REMARK    2  A    between atoms: N_5  and  C_6
REMARK    3  A    between atoms: C_6  and  C_7
REMARK    4  A    between atoms: C_7  and  C_8
REMARK    5  A    between atoms: C_8  and  C_9
REMARK    6  A    between atoms: C_9  and  N_10
REMARK    7  A    between atoms: C_9  and  C_11
REMARK    8  A    between atoms: C_11  and  O_12
REMARK                            x       y       z     vdW  Elec       q    Type
REMARK                         _______ _______ _______ _____ _____    ______ ____
ROOT
ATOM      1  C   UNK     1      10.750   2.045  -3.064  0.00  0.00    +0.000 C 
ENDROOT
BRANCH   1   2
ATOM      2  C   UNK     1      10.944   0.815  -3.942  0.00  0.00    +0.000 C 
BRANCH   2   7
ATOM      3  C   UNK     1      14.040  -0.880  -7.369  0.00  0.00    +0.000 C 
ATOM      4  N   UNK     1      13.543   0.082  -6.408  0.00  0.00    +0.000 N 
ATOM      5  C   UNK     1      12.431  -0.095  -5.653  0.00  0.00    +0.000 C 
ATOM      6  N   UNK     1      11.686  -1.146  -5.709  0.00  0.00    +0.000 NA
ATOM      7  N   UNK     1      12.118   0.918  -4.804  0.00  0.00    +0.000 N 
ATOM      8  H   UNK     1      14.082   0.931  -6.309  0.00  0.00    +0.000 HD
ATOM      9  H   UNK     1      12.067  -1.794  -6.392  0.00  0.00    +0.000 HD
ATOM     10  H   UNK     1      12.693   1.744  -4.732  0.00  0.00    +0.000 HD
ENDBRANCH   2   7
ENDBRANCH   1   2
BRANCH   1  11
ATOM     11  C   UNK     1       9.475   1.942  -2.208  0.00  0.00    +0.000 C 
BRANCH  11  12
ATOM     12  C   UNK     1       9.131   3.188  -1.358  0.00  0.00    +0.000 C 
BRANCH  12  13
ATOM     13  N   UNK     1       7.669   3.414  -1.402  0.00  0.00    +0.000 NA
ATOM     14  H   UNK     1       7.321   3.525  -2.351  0.00  0.00    +0.000 HD
ATOM     15  H   UNK     1       7.368   4.159  -0.779  0.00  0.00    +0.000 HD
ENDBRANCH  12  13
BRANCH  12  16
ATOM     16  C   UNK     1       9.924   4.453  -1.744  0.00  0.00    +0.000 C 
ATOM     17  O   UNK     1      11.145   4.541  -1.664  0.00  0.00    +0.000 OA
BRANCH  16  18
ATOM     18  O   UNK     1       9.178   5.484  -2.199  0.00  0.00    +0.000 OA
ATOM     19  H   UNK     1       8.224   5.288  -2.186  0.00  0.00    +0.000 HD
ENDBRANCH  16  18
ENDBRANCH  12  16
ENDBRANCH  11  12
ENDBRANCH   1  11
TORSDOF 7
