REMARK  Name = Tilbroquinol
REMARK  2 active torsions:
REMARK  status: ('A' for Active; 'I' for Inactive)
REMARK    1  A    between atoms: C_1  and  C_2
REMARK    2  A    between atoms: C_9  and  O_10
REMARK                            x       y       z     vdW  Elec       q    Type
REMARK                         _______ _______ _______ _____ _____    ______ ____
ROOT
ATOM      1  C   UNL     1       0.961  -0.009  -0.044  0.00  0.00    +0.000 C 
ATOM      2  C   UNL     1       2.469  -0.058  -0.007  0.00  0.00    +0.000 A 
ATOM      3  C   UNL     1       3.210  -1.262   0.026  0.00  0.00    +0.000 A 
ATOM      4  C   UNL     1       2.605  -2.526  -0.006  0.00  0.00    +0.000 A 
ATOM      5  C   UNL     1       3.360  -3.667  -0.194  0.00  0.00    +0.000 A 
ATOM      6  C   UNL     1       4.732  -3.543  -0.125  0.00  0.00    +0.000 A 
ATOM      7  N   UNL     1       5.377  -2.360   0.007  0.00  0.00    +0.000 NA
ATOM      8  C   UNL     1       4.633  -1.232   0.018  0.00  0.00    +0.000 A 
ATOM      9  C   UNL     1       5.267   0.011  -0.029  0.00  0.00    +0.000 A 
ATOM     10  C   UNL     1       4.545   1.200  -0.096  0.00  0.00    +0.000 A 
ATOM     11 BR   UNL     1       5.397   2.888  -0.238  0.00  0.00    +0.000 Br
ATOM     12  C   UNL     1       3.151   1.164  -0.086  0.00  0.00    +0.000 A 
ENDROOT
BRANCH   9  13
ATOM     13  O   UNL     1       6.647   0.055  -0.050  0.00  0.00    +0.000 OA
ATOM     14  H   UNL     1       6.937  -0.878  -0.006  0.00  0.00    +0.000 HD
ENDBRANCH   9  13
TORSDOF 1
