REMARK  Name = Tiludronic acid
REMARK  8 active torsions:
REMARK  status: ('A' for Active; 'I' for Inactive)
REMARK    1  A    between atoms: O_1  and  P_2
REMARK    2  A    between atoms: P_2  and  O_3
REMARK    3  A    between atoms: P_2  and  C_5
REMARK    4  A    between atoms: C_5  and  S_6
REMARK    5  A    between atoms: C_5  and  P_14
REMARK    6  A    between atoms: S_6  and  C_7
REMARK    7  A    between atoms: P_14  and  O_15
REMARK    8  A    between atoms: P_14  and  O_16
REMARK                            x       y       z     vdW  Elec       q    Type
REMARK                         _______ _______ _______ _____ _____    ______ ____
ROOT
ATOM      1  C   UNL     1       4.623  -0.075   0.018  0.00  0.00    +0.000 C 
ENDROOT
BRANCH   1   2
ATOM      2  P   UNL     1       2.793  -0.075   0.018  0.00  0.00    +0.000 P 
ATOM      3  O   UNL     1       2.660   0.996  -1.063  0.00  0.00    +0.000 OA
BRANCH   2   4
ATOM      4  O   UNL     1       1.063  -0.075   0.018  0.00  0.00    +0.000 OA
ATOM      5  H   UNL     1       0.821   0.506  -0.738  0.00  0.00    +0.000 HD
ENDBRANCH   2   4
BRANCH   2   6
ATOM      6  O   UNL     1       2.586  -1.511  -0.724  0.00  0.00    +0.000 OA
ATOM      7  H   UNL     1       1.791  -1.963  -0.368  0.00  0.00    +0.000 HD
ENDBRANCH   2   6
ENDBRANCH   1   2
BRANCH   1   8
ATOM      8  P   UNL     1       5.233   1.147  -1.200  0.00  0.00    +0.000 P 
ATOM      9  O   UNL     1       5.749   2.181  -2.230  0.00  0.00    +0.000 OA
BRANCH   8  10
ATOM     10  O   UNL     1       6.744   0.492  -1.008  0.00  0.00    +0.000 OA
ATOM     11  H   UNL     1       6.744  -0.486  -1.094  0.00  0.00    +0.000 HD
ENDBRANCH   8  10
BRANCH   8  12
ATOM     12  O   UNL     1       4.677   0.153  -2.398  0.00  0.00    +0.000 OA
ATOM     13  H   UNL     1       3.713   0.336  -2.518  0.00  0.00    +0.000 HD
ENDBRANCH   8  12
ENDBRANCH   1   8
BRANCH   1  14
ATOM     14  S   UNL     1       5.355  -1.765  -0.345  0.00  0.00    +0.000 S 
BRANCH  14  15
ATOM     15  C   UNL     1       4.731  -2.905   0.854  0.00  0.00    +0.000 A 
ATOM     16  C   UNL     1       4.118  -2.544   2.058  0.00  0.00    +0.000 A 
ATOM     17  C   UNL     1       3.791  -3.534   2.989  0.00  0.00    +0.000 A 
ATOM     18  C   UNL     1       4.071  -4.869   2.730  0.00  0.00    +0.000 A 
ATOM     19 CL   UNL     1       3.750  -6.062   3.925  0.00  0.00    +0.000 Cl
ATOM     20  C   UNL     1       4.635  -5.248   1.512  0.00  0.00    +0.000 A 
ATOM     21  C   UNL     1       4.951  -4.260   0.580  0.00  0.00    +0.000 A 
ENDBRANCH  14  15
ENDBRANCH   1  14
TORSDOF 8
