REMARK  Name = Timolol
REMARK  10 active torsions:
REMARK  status: ('A' for Active; 'I' for Inactive)
REMARK    1  A    between atoms: C_2  and  O_3
REMARK    2  A    between atoms: C_2  and  C_4
REMARK    3  A    between atoms: C_2  and  C_10
REMARK    4  A    between atoms: C_4  and  N_5
REMARK    5  A    between atoms: N_5  and  C_6
REMARK    6  A    between atoms: C_6  and  C_7
REMARK    7  A    between atoms: C_6  and  C_8
REMARK    8  A    between atoms: C_6  and  C_9
REMARK    9  A    between atoms: C_10  and  O_11
REMARK   10  A    between atoms: O_11  and  C_12
REMARK                            x       y       z     vdW  Elec       q    Type
REMARK                         _______ _______ _______ _____ _____    ______ ____
ROOT
ATOM      1  O   UNL     1       4.121   0.080  -1.395  0.00  0.00    +0.000 OA
ENDROOT
BRANCH   1   2
ATOM      2  C   UNL     1       4.672   0.172  -2.631  0.00  0.00    +0.000 A 
ATOM      3  N   UNL     1       5.717  -0.624  -2.828  0.00  0.00    +0.000 NA
ATOM      4  S   UNL     1       6.176  -0.293  -4.404  0.00  0.00    +0.000 S 
ATOM      5  N   UNL     1       5.012   0.832  -4.839  0.00  0.00    +0.000 NA
ATOM      6  C   UNL     1       4.296   1.057  -3.729  0.00  0.00    +0.000 A 
ATOM      7  N   UNL     1       3.315   1.995  -3.622  0.00  0.00    +0.000 N 
ATOM      8  C   UNL     1       3.374   3.063  -2.619  0.00  0.00    +0.000 C 
ATOM      9  C   UNL     1       2.018   3.207  -1.903  0.00  0.00    +0.000 C 
ATOM     10  O   UNL     1       0.917   3.292  -2.825  0.00  0.00    +0.000 OA
ATOM     11  C   UNL     1       0.894   2.191  -3.755  0.00  0.00    +0.000 C 
ATOM     12  C   UNL     1       2.206   2.109  -4.566  0.00  0.00    +0.000 C 
ENDBRANCH   1   2
BRANCH   1  13
ATOM     13  C   UNL     1       2.706  -0.083  -1.431  0.00  0.00    +0.000 C 
BRANCH  13  14
ATOM     14  C   UNL     1       2.131   0.051  -0.015  0.00  0.00    +0.000 C 
BRANCH  14  15
ATOM     15  O   UNL     1       0.700   0.101  -0.056  0.00  0.00    +0.000 OA
ATOM     16  H   UNL     1       0.373  -0.749  -0.395  0.00  0.00    +0.000 HD
ENDBRANCH  14  15
BRANCH  14  17
ATOM     17  C   UNL     1       2.622  -1.166   0.750  0.00  0.00    +0.000 C 
BRANCH  17  18
ATOM     18  N   UNL     1       2.159  -1.234   2.132  0.00  0.00    +0.000 NA
ATOM     19  H   UNL     1       1.139  -1.172   2.155  0.00  0.00    +0.000 HD
BRANCH  18  20
ATOM     20  C   UNL     1       2.637  -2.451   2.816  0.00  0.00    +0.000 C 
ATOM     21  C   UNL     1       2.114  -3.723   2.124  0.00  0.00    +0.000 C 
ATOM     22  C   UNL     1       4.177  -2.466   2.872  0.00  0.00    +0.000 C 
ATOM     23  C   UNL     1       2.101  -2.418   4.254  0.00  0.00    +0.000 C 
ENDBRANCH  18  20
ENDBRANCH  17  18
ENDBRANCH  14  17
ENDBRANCH  13  14
ENDBRANCH   1  13
TORSDOF 7
