REMARK  Name = Tinidazole
REMARK  7 active torsions:
REMARK  status: ('A' for Active; 'I' for Inactive)
REMARK    1  A    between atoms: C_1  and  C_2
REMARK    2  A    between atoms: C_2  and  S_3
REMARK    3  A    between atoms: S_3  and  C_6
REMARK    4  A    between atoms: C_6  and  C_7
REMARK    5  A    between atoms: C_7  and  N_8
REMARK    6  A    between atoms: C_9  and  C_10
REMARK    7  A    between atoms: C_13  and  N_14
REMARK                            x       y       z     vdW  Elec       q    Type
REMARK                         _______ _______ _______ _____ _____    ______ ____
ROOT
ATOM      1  N   UNL     1       6.890   0.518  -3.166  0.00  0.00    +0.000 N 
ATOM      2  C   UNL     1       7.716   1.622  -3.025  0.00  0.00    +0.000 A 
ATOM      3  C   UNL     1       7.242   3.026  -2.853  0.00  0.00    +0.000 C 
ATOM      4  N   UNL     1       8.985   1.257  -3.054  0.00  0.00    +0.000 NA
ATOM      5  C   UNL     1       8.993  -0.102  -3.230  0.00  0.00    +0.000 A 
ATOM      6  C   UNL     1       7.708  -0.578  -3.295  0.00  0.00    +0.000 A 
ENDROOT
BRANCH   6   7
ATOM      7  N   UNL     1       7.285  -1.931  -3.437  0.00  0.00    +0.000 N 
ATOM      8  O   UNL     1       6.073  -2.165  -3.402  0.00  0.00    +0.000 OA
ATOM      9  O   UNL     1       8.174  -2.780  -3.551  0.00  0.00    +0.000 OA
ENDBRANCH   6   7
BRANCH   1  10
ATOM     10  C   UNL     1       5.440   0.553  -3.130  0.00  0.00    +0.000 C 
BRANCH  10  11
ATOM     11  C   UNL     1       4.914   0.328  -1.720  0.00  0.00    +0.000 C 
BRANCH  11  12
ATOM     12  S   UNL     1       3.139   0.348  -1.779  0.00  0.00    +0.000 S 
ATOM     13  O   UNL     1       2.725  -0.794  -2.573  0.00  0.00    +0.000 OA
ATOM     14  O   UNL     1       2.755   1.693  -2.155  0.00  0.00    +0.000 OA
BRANCH  12  16
ATOM     15  C   UNL     1       1.080   0.060  -0.037  0.00  0.00    +0.000 C 
ATOM     16  C   UNL     1       2.599   0.070  -0.095  0.00  0.00    +0.000 C 
ENDBRANCH  12  16
ENDBRANCH  11  12
ENDBRANCH  10  11
ENDBRANCH   1  10
TORSDOF 5
