REMARK  Name = Tioconazole
REMARK  6 active torsions:
REMARK  status: ('A' for Active; 'I' for Inactive)
REMARK    1  A    between atoms: C_3  and  C_4
REMARK    2  A    between atoms: C_4  and  O_5
REMARK    3  A    between atoms: O_5  and  C_6
REMARK    4  A    between atoms: C_6  and  C_7
REMARK    5  A    between atoms: C_6  and  C_13
REMARK    6  A    between atoms: C_7  and  N_8
REMARK                            x       y       z     vdW  Elec       q    Type
REMARK                         _______ _______ _______ _____ _____    ______ ____
ROOT
ATOM      1  C   UNL     1       2.368   3.887   0.216  0.00  0.00    +0.000 C 
ENDROOT
BRANCH   1   2
ATOM      2  C   UNL     1       3.901   3.701   0.262  0.00  0.00    +0.000 A 
ATOM      3  C   UNL     1       4.800   4.781   0.249  0.00  0.00    +0.000 A 
ATOM      4 CL   UNL     1       4.266   6.419   0.122  0.00  0.00    +0.000 Cl
ATOM      5  C   UNL     1       6.185   4.570   0.317  0.00  0.00    +0.000 A 
ATOM      6  C   UNL     1       6.699   3.277   0.359  0.00  0.00    +0.000 A 
ATOM      7 CL   UNL     1       8.399   3.025   0.416  0.00  0.00    +0.000 Cl
ATOM      8  C   UNL     1       5.844   2.188   0.346  0.00  0.00    +0.000 A 
ATOM      9  C   UNL     1       4.465   2.403   0.310  0.00  0.00    +0.000 A 
ENDBRANCH   1   2
BRANCH   1  10
ATOM     10  O   UNL     1       1.851   2.581  -0.134  0.00  0.00    +0.000 OA
BRANCH  10  11
ATOM     11  C   UNL     1       0.469   2.552  -0.420  0.00  0.00    +0.000 C 
BRANCH  11  14
ATOM     12 CL   UNL     1       1.965  -0.471  -0.049  0.00  0.00    +0.000 Cl
ATOM     13  C   UNL     1       0.311  -0.014  -0.125  0.00  0.00    +0.000 A 
ATOM     14  C   UNL     1      -0.229   1.240  -0.290  0.00  0.00    +0.000 A 
ATOM     15  C   UNL     1      -1.672   1.164  -0.165  0.00  0.00    +0.000 A 
ATOM     16  C   UNL     1      -2.129  -0.125  -0.018  0.00  0.00    +0.000 A 
ATOM     17  S   UNL     1      -0.842  -1.243   0.055  0.00  0.00    +0.000 S 
ENDBRANCH  11  14
ENDBRANCH  10  11
ENDBRANCH   1  10
BRANCH   1  18
ATOM     18  C   UNL     1       1.846   4.495   1.586  0.00  0.00    +0.000 C 
BRANCH  18  19
ATOM     19  N   UNL     1       0.427   4.833   1.725  0.00  0.00    +0.000 N 
ATOM     20  C   UNL     1      -0.600   4.006   2.131  0.00  0.00    +0.000 A 
ATOM     21  C   UNL     1      -1.737   4.630   1.649  0.00  0.00    +0.000 A 
ATOM     22  N   UNL     1      -1.456   5.912   1.284  0.00  0.00    +0.000 NA
ATOM     23  C   UNL     1      -0.143   6.039   1.429  0.00  0.00    +0.000 A 
ENDBRANCH  18  19
ENDBRANCH   1  18
TORSDOF 6
