REMARK  Name = Tioguanine
REMARK  0 active torsions:
REMARK  status: ('A' for Active; 'I' for Inactive)
REMARK                            x       y       z     vdW  Elec       q    Type
REMARK                         _______ _______ _______ _____ _____    ______ ____
ROOT
ATOM      1  N   UNL     1       1.147   0.114  -0.047  0.00  0.00    +0.000 N 
ATOM      2  C   UNL     1       2.497   0.042  -0.058  0.00  0.00    +0.000 A 
ATOM      3  N   UNL     1       3.047  -1.141  -0.062  0.00  0.00    +0.000 NA
ATOM      4  C   UNL     1       4.424  -1.246  -0.069  0.00  0.00    +0.000 A 
ATOM      5  S   UNL     1       5.302  -2.669  -0.077  0.00  0.00    +0.000 S 
ATOM      6  C   UNL     1       5.116   0.004  -0.070  0.00  0.00    +0.000 A 
ATOM      7  C   UNL     1       4.467   1.206  -0.066  0.00  0.00    +0.000 A 
ATOM      8  N   UNL     1       3.133   1.254  -0.061  0.00  0.00    +0.000 N 
ATOM      9  N   UNL     1       5.320   2.261  -0.069  0.00  0.00    +0.000 NA
ATOM     10  C   UNL     1       6.517   1.705  -0.075  0.00  0.00    +0.000 A 
ATOM     11  N   UNL     1       6.443   0.334  -0.075  0.00  0.00    +0.000 N 
ATOM     12  H   UNL     1       0.638  -0.762  -0.057  0.00  0.00    +0.000 HD
ATOM     13  H   UNL     1       0.617   0.971  -0.064  0.00  0.00    +0.000 HD
ATOM     14  H   UNL     1       2.629   2.126  -0.055  0.00  0.00    +0.000 HD
ATOM     15  H   UNL     1       7.220  -0.316  -0.080  0.00  0.00    +0.000 HD
ENDROOT
TORSDOF 0
