REMARK  Name = Tiopronin
REMARK  6 active torsions:
REMARK  status: ('A' for Active; 'I' for Inactive)
REMARK    1  A    between atoms: C_1  and  C_2
REMARK    2  A    between atoms: C_2  and  S_3
REMARK    3  A    between atoms: C_2  and  C_4
REMARK    4  A    between atoms: N_6  and  C_7
REMARK    5  A    between atoms: C_7  and  C_8
REMARK    6  A    between atoms: C_8  and  O_9
REMARK                            x       y       z     vdW  Elec       q    Type
REMARK                         _______ _______ _______ _____ _____    ______ ____
ROOT
ATOM      1  C   UNL     1       2.954   1.114  -1.095  0.00  0.00    +0.000 C 
ATOM      2  O   UNL     1       2.195   1.803  -1.771  0.00  0.00    +0.000 OA
ATOM      3  N   UNL     1       4.328   1.256  -1.162  0.00  0.00    +0.000 N 
ATOM      4  H   UNL     1       4.863   0.590  -0.628  0.00  0.00    +0.000 HD
ENDROOT
BRANCH   1   6
ATOM      5  C   UNL     1       0.944   0.035  -0.024  0.00  0.00    +0.000 C 
ATOM      6  C   UNL     1       2.466   0.080  -0.071  0.00  0.00    +0.000 C 
BRANCH   6   7
ATOM      7  S   UNL     1       3.154  -1.574  -0.459  0.00  0.00    +0.000 S 
ATOM      8  H   UNL     1       2.540  -1.746  -1.642  0.00  0.00    +0.000 HD
ENDBRANCH   6   7
ENDBRANCH   1   6
BRANCH   3   9
ATOM      9  C   UNL     1       4.922   2.188  -2.118  0.00  0.00    +0.000 C 
BRANCH   9  10
ATOM     10  C   UNL     1       6.446   2.273  -2.204  0.00  0.00    +0.000 C 
ATOM     11  O   UNL     1       7.025   3.038  -2.968  0.00  0.00    +0.000 OA
BRANCH  10  12
ATOM     12  O   UNL     1       7.145   1.452  -1.392  0.00  0.00    +0.000 OA
ATOM     13  H   UNL     1       6.633   0.868  -0.815  0.00  0.00    +0.000 HD
ENDBRANCH  10  12
ENDBRANCH   9  10
ENDBRANCH   3   9
TORSDOF 5
