REMARK  Name = Tiotropium
REMARK  8 active torsions:
REMARK  status: ('A' for Active; 'I' for Inactive)
REMARK    1  A    between atoms: C_9  and  O_17
REMARK    2  A    between atoms: N_14  and  C_15
REMARK    3  A    between atoms: N_14  and  C_16
REMARK    4  A    between atoms: O_17  and  C_18
REMARK    5  A    between atoms: C_18  and  C_20
REMARK    6  A    between atoms: C_20  and  O_21
REMARK    7  A    between atoms: C_20  and  C_22
REMARK    8  A    between atoms: C_20  and  C_27
REMARK                            x       y       z     vdW  Elec       q    Type
REMARK                         _______ _______ _______ _____ _____    ______ ____
ROOT
ATOM      1  C   UNL     1       3.153  -2.568  -2.874  0.00  0.00    +0.000 C 
ATOM      2  O   UNL     1       2.584  -3.552  -2.440  0.00  0.00    +0.000 OA
ENDROOT
BRANCH   1   3
ATOM      3  O   UNL     1       4.105  -1.902  -2.145  0.00  0.00    +0.000 OA
BRANCH   3   9
ATOM      4  C   UNL     1       2.582   0.119  -0.061  0.00  0.00    +0.000 C 
ATOM      5  O   UNL     1       3.354   0.201  -1.251  0.00  0.00    +0.000 OA
ATOM      6  C   UNL     1       4.029   0.653  -0.093  0.00  0.00    +0.000 C 
ATOM      7  C   UNL     1       4.838  -0.336   0.734  0.00  0.00    +0.000 C 
ATOM      8  C   UNL     1       5.373  -1.493  -0.134  0.00  0.00    +0.000 C 
ATOM      9  C   UNL     1       4.273  -2.367  -0.783  0.00  0.00    +0.000 C 
ATOM     10  C   UNL     1       2.926  -2.382  -0.012  0.00  0.00    +0.000 C 
ATOM     11  C   UNL     1       2.641  -1.133   0.806  0.00  0.00    +0.000 C 
ATOM     12  N   UNL     1       3.809  -0.868   1.757  0.00  0.00    +0.000 N 
ATOM     13  C   UNL     1       3.388   0.275   2.710  0.00  0.00    +0.000 C 
ATOM     14  C   UNL     1       4.248  -2.036   2.604  0.00  0.00    +0.000 C 
ENDBRANCH   3   9
ENDBRANCH   1   3
BRANCH   1  15
ATOM     15  C   UNL     1       2.902  -1.883  -4.256  0.00  0.00    +0.000 C 
BRANCH  15  16
ATOM     16  C   UNL     1       4.201  -1.917  -5.049  0.00  0.00    +0.000 A 
ATOM     17  C   UNL     1       4.975  -0.865  -5.511  0.00  0.00    +0.000 A 
ATOM     18  C   UNL     1       6.117  -1.302  -6.240  0.00  0.00    +0.000 A 
ATOM     19  C   UNL     1       6.190  -2.671  -6.323  0.00  0.00    +0.000 A 
ATOM     20  S   UNL     1       4.937  -3.426  -5.463  0.00  0.00    +0.000 S 
ENDBRANCH  15  16
BRANCH  15  21
ATOM     21  C   UNL     1       1.784  -2.657  -4.942  0.00  0.00    +0.000 A 
ATOM     22  C   UNL     1       1.708  -4.041  -5.042  0.00  0.00    +0.000 A 
ATOM     23  C   UNL     1       0.585  -4.502  -5.755  0.00  0.00    +0.000 A 
ATOM     24  C   UNL     1      -0.202  -3.459  -6.175  0.00  0.00    +0.000 A 
ATOM     25  S   UNL     1       0.426  -1.936  -5.702  0.00  0.00    +0.000 S 
ENDBRANCH  15  21
BRANCH  15  26
ATOM     26  O   UNL     1       2.503  -0.516  -4.104  0.00  0.00    +0.000 OA
ATOM     27  H   UNL     1       3.226  -0.051  -3.648  0.00  0.00    +0.000 HD
ENDBRANCH  15  26
ENDBRANCH   1  15
TORSDOF 6
