REMARK  Name = Tipiracil
REMARK  2 active torsions:
REMARK  status: ('A' for Active; 'I' for Inactive)
REMARK    1  A    between atoms: C_3  and  C_4
REMARK    2  A    between atoms: C_4  and  N_5
REMARK                            x       y       z     vdW  Elec       q    Type
REMARK                         _______ _______ _______ _____ _____    ______ ____
ROOT
ATOM      1 CL   UNL     1       2.405  -0.180   0.527  0.00  0.00    +0.000 Cl
ATOM      2  C   UNL     1       0.766   0.147   0.139  0.00  0.00    +0.000 A 
ATOM      3  C   UNL     1       0.119   1.330   0.019  0.00  0.00    +0.000 A 
ATOM      4  N   UNL     1      -1.277   1.290  -0.055  0.00  0.00    +0.000 N 
ATOM      5  C   UNL     1      -2.026   0.145  -0.022  0.00  0.00    +0.000 A 
ATOM      6  O   UNL     1      -3.255   0.169   0.030  0.00  0.00    +0.000 OA
ATOM      7  N   UNL     1      -1.339  -1.021  -0.039  0.00  0.00    +0.000 N 
ATOM      8  C   UNL     1       0.012  -1.124   0.001  0.00  0.00    +0.000 A 
ATOM      9  O   UNL     1       0.554  -2.223  -0.041  0.00  0.00    +0.000 OA
ATOM     10  H   UNL     1      -1.822   2.146  -0.080  0.00  0.00    +0.000 HD
ATOM     11  H   UNL     1      -1.844  -1.891  -0.052  0.00  0.00    +0.000 HD
ENDROOT
BRANCH   3  12
ATOM     12  C   UNL     1       0.696   2.757  -0.033  0.00  0.00    +0.000 C 
BRANCH  12  13
ATOM     13  N   UNL     1       2.136   2.842  -0.153  0.00  0.00    +0.000 N 
ATOM     14  C   UNL     1       2.968   3.220   0.977  0.00  0.00    +0.000 C 
ATOM     15  C   UNL     1       4.255   2.416   0.761  0.00  0.00    +0.000 C 
ATOM     16  C   UNL     1       4.307   2.122  -0.746  0.00  0.00    +0.000 C 
ATOM     17  C   UNL     1       2.850   2.219  -1.139  0.00  0.00    +0.000 C 
ATOM     18  N   UNL     1       2.350   1.696  -2.205  0.00  0.00    +0.000 NA
ATOM     19  H   UNL     1       3.068   1.182  -2.725  0.00  0.00    +0.000 HD
ENDBRANCH  12  13
ENDBRANCH   3  12
TORSDOF 2
