REMARK  Name = Tipranavir
REMARK  15 active torsions:
REMARK  status: ('A' for Active; 'I' for Inactive)
REMARK    1  A    between atoms: C_2  and  C_3
REMARK    2  A    between atoms: C_2  and  C_5
REMARK    3  A    between atoms: C_2  and  C_25
REMARK    4  A    between atoms: C_3  and  C_4
REMARK    5  A    between atoms: C_7  and  N_8
REMARK    6  A    between atoms: N_8  and  S_9
REMARK    7  A    between atoms: S_9  and  C_12
REMARK    8  A    between atoms: C_15  and  C_18
REMARK    9  A    between atoms: C_26  and  O_27
REMARK   10  A    between atoms: C_29  and  C_30
REMARK   11  A    between atoms: C_29  and  C_33
REMARK   12  A    between atoms: C_30  and  C_31
REMARK   13  A    between atoms: C_31  and  C_32
REMARK   14  A    between atoms: C_33  and  C_34
REMARK   15  A    between atoms: C_34  and  C_35
REMARK                            x       y       z     vdW  Elec       q    Type
REMARK                         _______ _______ _______ _____ _____    ______ ____
ROOT
ATOM      1  C   UNL     1       2.083   0.021   0.105  0.00  0.00    +0.000 C 
ENDROOT
BRANCH   1   2
ATOM      2  C   UNL     1       2.570   0.029  -1.363  0.00  0.00    +0.000 C 
ATOM      3  C   UNL     1       2.590   1.166  -2.079  0.00  0.00    +0.000 C 
ATOM      4  C   UNL     1       3.184   1.364  -3.371  0.00  0.00    +0.000 C 
ATOM      5  C   UNL     1       3.491   0.116  -4.111  0.00  0.00    +0.000 C 
ATOM      6  O   UNL     1       3.214  -1.102  -3.448  0.00  0.00    +0.000 OA
ATOM      7  C   UNL     1       3.025  -1.221  -2.120  0.00  0.00    +0.000 C 
ATOM      8  O   UNL     1       3.139  -2.342  -1.709  0.00  0.00    +0.000 OA
BRANCH   3   9
ATOM      9  O   UNL     1       2.099   2.386  -1.778  0.00  0.00    +0.000 OA
ATOM     10  H   UNL     1       1.280   2.281  -1.291  0.00  0.00    +0.000 HD
ENDBRANCH   3   9
BRANCH   5  11
ATOM     11  C   UNL     1       2.565   0.075  -5.323  0.00  0.00    +0.000 C 
BRANCH  11  12
ATOM     12  C   UNL     1       1.080   0.108  -4.857  0.00  0.00    +0.000 C 
ATOM     13  C   UNL     1       0.166   0.158  -6.049  0.00  0.00    +0.000 C 
ENDBRANCH  11  12
ENDBRANCH   5  11
BRANCH   5  14
ATOM     14  C   UNL     1       4.988   0.138  -4.307  0.00  0.00    +0.000 C 
BRANCH  14  15
ATOM     15  C   UNL     1       5.471   1.455  -4.928  0.00  0.00    +0.000 C 
BRANCH  15  16
ATOM     16  C   UNL     1       6.951   1.531  -4.984  0.00  0.00    +0.000 A 
ATOM     17  C   UNL     1       7.716   0.373  -5.104  0.00  0.00    +0.000 A 
ATOM     18  C   UNL     1       9.087   0.447  -4.998  0.00  0.00    +0.000 A 
ATOM     19  C   UNL     1       9.699   1.692  -4.903  0.00  0.00    +0.000 A 
ATOM     20  C   UNL     1       8.941   2.860  -4.815  0.00  0.00    +0.000 A 
ATOM     21  C   UNL     1       7.561   2.781  -4.835  0.00  0.00    +0.000 A 
ENDBRANCH  15  16
ENDBRANCH  14  15
ENDBRANCH   5  14
ENDBRANCH   1   2
BRANCH   1  22
ATOM     22  C   UNL     1       2.410  -1.265   0.894  0.00  0.00    +0.000 A 
ATOM     23  C   UNL     1       1.957  -2.526   0.457  0.00  0.00    +0.000 A 
ATOM     24  C   UNL     1       2.306  -3.707   1.109  0.00  0.00    +0.000 A 
ATOM     25  C   UNL     1       3.014  -3.621   2.302  0.00  0.00    +0.000 A 
ATOM     26  C   UNL     1       3.335  -2.388   2.841  0.00  0.00    +0.000 A 
ATOM     27  C   UNL     1       3.088  -1.233   2.121  0.00  0.00    +0.000 A 
BRANCH  24  28
ATOM     28  N   UNL     1       1.864  -4.948   0.555  0.00  0.00    +0.000 N 
ATOM     29  H   UNL     1       1.523  -4.967  -0.402  0.00  0.00    +0.000 HD
BRANCH  28  30
ATOM     30  S   UNL     1       1.931  -6.334   1.509  0.00  0.00    +0.000 S 
ATOM     31  O   UNL     1       3.336  -6.663   1.658  0.00  0.00    +0.000 OA
ATOM     32  O   UNL     1       1.083  -6.094   2.661  0.00  0.00    +0.000 OA
BRANCH  30  33
ATOM     33  C   UNL     1       1.170  -7.644   0.572  0.00  0.00    +0.000 A 
ATOM     34  N   UNL     1       1.653  -8.875   0.893  0.00  0.00    +0.000 NA
ATOM     35  C   UNL     1       1.143  -9.925   0.225  0.00  0.00    +0.000 A 
ATOM     36  C   UNL     1       0.165  -9.806  -0.751  0.00  0.00    +0.000 A 
ATOM     37  C   UNL     1      -0.316  -8.522  -1.049  0.00  0.00    +0.000 A 
ATOM     38  C   UNL     1       0.186  -7.411  -0.373  0.00  0.00    +0.000 A 
BRANCH  36  39
ATOM     39  C   UNL     1      -0.335 -11.036  -1.440  0.00  0.00    +0.000 C 
ATOM     40  F   UNL     1       0.652 -11.706  -2.093  0.00  0.00    +0.000 F 
ATOM     41  F   UNL     1      -0.889 -11.929  -0.575  0.00  0.00    +0.000 F 
ATOM     42  F   UNL     1      -1.292 -10.776  -2.373  0.00  0.00    +0.000 F 
ENDBRANCH  36  39
ENDBRANCH  30  33
ENDBRANCH  28  30
ENDBRANCH  24  28
ENDBRANCH   1  22
BRANCH   1  43
ATOM     43  C   UNL     1       2.531   1.281   0.993  0.00  0.00    +0.000 C 
ATOM     44  C   UNL     1       2.046   2.700   0.732  0.00  0.00    +0.000 C 
ENDBRANCH   1  43
TORSDOF 13
