REMARK  Name = Tirbanibulin
REMARK  9 active torsions:
REMARK  status: ('A' for Active; 'I' for Inactive)
REMARK    1  A    between atoms: C_2  and  C_3
REMARK    2  A    between atoms: C_3  and  C_4
REMARK    3  A    between atoms: C_7  and  C_10
REMARK    4  A    between atoms: C_13  and  O_14
REMARK    5  A    between atoms: O_14  and  C_15
REMARK    6  A    between atoms: C_15  and  C_16
REMARK    7  A    between atoms: C_16  and  N_17
REMARK    8  A    between atoms: N_25  and  C_26
REMARK    9  A    between atoms: C_26  and  C_27
REMARK                            x       y       z     vdW  Elec       q    Type
REMARK                         _______ _______ _______ _____ _____    ______ ____
ROOT
ATOM      1  C   UNL     1       2.036  -1.877   1.528  0.00  0.00    +0.000 A 
ATOM      2  C   UNL     1       2.259  -3.251   1.485  0.00  0.00    +0.000 A 
ATOM      3  C   UNL     1       1.401  -4.094   2.179  0.00  0.00    +0.000 A 
ATOM      4  C   UNL     1       0.329  -3.557   2.893  0.00  0.00    +0.000 A 
ATOM      5  C   UNL     1       0.211  -2.169   2.907  0.00  0.00    +0.000 A 
ATOM      6  N   UNL     1       1.055  -1.327   2.276  0.00  0.00    +0.000 NA
ENDROOT
BRANCH   4   7
ATOM      7  C   UNL     1      -0.565  -4.382   3.694  0.00  0.00    +0.000 A 
ATOM      8  C   UNL     1      -1.959  -4.313   3.543  0.00  0.00    +0.000 A 
ATOM      9  C   UNL     1      -2.805  -4.928   4.463  0.00  0.00    +0.000 A 
ATOM     10  C   UNL     1      -2.279  -5.677   5.504  0.00  0.00    +0.000 A 
ATOM     11  C   UNL     1      -0.882  -5.807   5.621  0.00  0.00    +0.000 A 
ATOM     12  C   UNL     1      -0.036  -5.168   4.720  0.00  0.00    +0.000 A 
BRANCH  10  13
ATOM     13  O   UNL     1      -3.240  -6.231   6.329  0.00  0.00    +0.000 OA
BRANCH  13  14
ATOM     14  C   UNL     1      -2.668  -7.042   7.335  0.00  0.00    +0.000 C 
BRANCH  14  15
ATOM     15  C   UNL     1      -3.618  -8.037   8.035  0.00  0.00    +0.000 C 
BRANCH  15  16
ATOM     16  N   UNL     1      -2.948  -8.990   8.973  0.00  0.00    +0.000 NA
ATOM     17  C   UNL     1      -1.475  -9.041   8.794  0.00  0.00    +0.000 C 
ATOM     18  C   UNL     1      -1.066  -9.710   7.455  0.00  0.00    +0.000 C 
ATOM     19  O   UNL     1      -1.547 -11.054   7.405  0.00  0.00    +0.000 OA
ATOM     20  C   UNL     1      -2.987 -11.025   7.485  0.00  0.00    +0.000 C 
ATOM     21  C   UNL     1      -3.428 -10.393   8.820  0.00  0.00    +0.000 C 
ENDBRANCH  15  16
ENDBRANCH  14  15
ENDBRANCH  13  14
ENDBRANCH  10  13
ENDBRANCH   4   7
BRANCH   1  22
ATOM     22  C   UNL     1       2.941  -0.951   0.767  0.00  0.00    +0.000 C 
BRANCH  22  24
ATOM     23  O   UNL     1       0.991   0.108  -0.259  0.00  0.00    +0.000 OA
ATOM     24  C   UNL     1       2.202   0.027  -0.132  0.00  0.00    +0.000 C 
ATOM     25  N   UNL     1       2.975   0.863  -0.889  0.00  0.00    +0.000 N 
ATOM     26  H   UNL     1       2.427   1.493  -1.464  0.00  0.00    +0.000 HD
BRANCH  25  27
ATOM     27  C   UNL     1       4.417   0.933  -0.946  0.00  0.00    +0.000 C 
BRANCH  27  28
ATOM     28  C   UNL     1       4.864   2.049  -1.848  0.00  0.00    +0.000 A 
ATOM     29  C   UNL     1       5.809   1.851  -2.864  0.00  0.00    +0.000 A 
ATOM     30  C   UNL     1       6.243   2.934  -3.633  0.00  0.00    +0.000 A 
ATOM     31  C   UNL     1       5.684   4.198  -3.447  0.00  0.00    +0.000 A 
ATOM     32  C   UNL     1       4.738   4.401  -2.447  0.00  0.00    +0.000 A 
ATOM     33  C   UNL     1       4.350   3.338  -1.639  0.00  0.00    +0.000 A 
ENDBRANCH  27  28
ENDBRANCH  25  27
ENDBRANCH  22  24
ENDBRANCH   1  22
TORSDOF 9
