REMARK  Name = Tirofiban
REMARK  16 active torsions:
REMARK  status: ('A' for Active; 'I' for Inactive)
REMARK    1  A    between atoms: C_1  and  C_2
REMARK    2  A    between atoms: C_2  and  C_3
REMARK    3  A    between atoms: C_3  and  C_4
REMARK    4  A    between atoms: C_4  and  S_5
REMARK    5  A    between atoms: S_5  and  N_8
REMARK    6  A    between atoms: N_8  and  C_9
REMARK    7  A    between atoms: C_9  and  C_10
REMARK    8  A    between atoms: C_9  and  C_28
REMARK    9  A    between atoms: C_10  and  C_11
REMARK   10  A    between atoms: C_14  and  O_15
REMARK   11  A    between atoms: O_15  and  C_16
REMARK   12  A    between atoms: C_16  and  C_17
REMARK   13  A    between atoms: C_17  and  C_18
REMARK   14  A    between atoms: C_18  and  C_19
REMARK   15  A    between atoms: C_19  and  C_20
REMARK   16  A    between atoms: C_28  and  O_29
REMARK                            x       y       z     vdW  Elec       q    Type
REMARK                         _______ _______ _______ _____ _____    ______ ____
ROOT
ATOM      1  C   UNL     1       5.320   3.382  -4.702  0.00  0.00    +0.000 A 
ATOM      2  C   UNL     1       4.605   4.548  -4.389  0.00  0.00    +0.000 A 
ATOM      3  C   UNL     1       3.210   4.489  -4.162  0.00  0.00    +0.000 A 
ATOM      4  C   UNL     1       2.516   3.282  -4.258  0.00  0.00    +0.000 A 
ATOM      5  C   UNL     1       3.220   2.170  -4.686  0.00  0.00    +0.000 A 
ATOM      6  C   UNL     1       4.569   2.265  -5.064  0.00  0.00    +0.000 A 
ENDROOT
BRANCH   1   7
ATOM      7  C   UNL     1       6.811   3.231  -4.352  0.00  0.00    +0.000 C 
BRANCH   7   8
ATOM      8  C   UNL     1       7.373   1.791  -4.032  0.00  0.00    +0.000 C 
BRANCH   8   9
ATOM      9  N   UNL     1       6.951   1.077  -2.643  0.00  0.00    +0.000 NA
ATOM     10  H   UNL     1       7.199   0.087  -2.776  0.00  0.00    +0.000 HD
BRANCH   9  11
ATOM     11  S   UNL     1       5.285   1.044  -2.461  0.00  0.00    +0.000 S 
ATOM     12  O   UNL     1       4.865   0.119  -3.481  0.00  0.00    +0.000 OA
ATOM     13  O   UNL     1       4.890   2.430  -2.278  0.00  0.00    +0.000 OA
BRANCH  11  14
ATOM     14  C   UNL     1       4.625   0.332  -1.015  0.00  0.00    +0.000 C 
BRANCH  14  15
ATOM     15  C   UNL     1       3.077   0.421  -1.169  0.00  0.00    +0.000 C 
BRANCH  15  17
ATOM     16  C   UNL     1       0.928  -0.104   0.010  0.00  0.00    +0.000 C 
ATOM     17  C   UNL     1       2.440  -0.138   0.076  0.00  0.00    +0.000 C 
ENDBRANCH  15  17
ENDBRANCH  14  15
ENDBRANCH  11  14
ENDBRANCH   9  11
ENDBRANCH   8   9
BRANCH   8  18
ATOM     18  C   UNL     1       8.905   1.829  -4.113  0.00  0.00    +0.000 C 
ATOM     19  O   UNL     1       9.528   2.242  -5.082  0.00  0.00    +0.000 OA
BRANCH  18  20
ATOM     20  O   UNL     1       9.537   1.296  -3.038  0.00  0.00    +0.000 OA
ATOM     21  H   UNL     1       8.905   1.098  -2.317  0.00  0.00    +0.000 HD
ENDBRANCH  18  20
ENDBRANCH   8  18
ENDBRANCH   7   8
ENDBRANCH   1   7
BRANCH   4  22
ATOM     22  O   UNL     1       1.188   3.268  -3.922  0.00  0.00    +0.000 OA
BRANCH  22  23
ATOM     23  C   UNL     1       0.527   2.003  -4.058  0.00  0.00    +0.000 C 
BRANCH  23  24
ATOM     24  C   UNL     1      -0.972   2.218  -4.060  0.00  0.00    +0.000 C 
BRANCH  24  25
ATOM     25  C   UNL     1      -1.701   0.868  -4.114  0.00  0.00    +0.000 C 
BRANCH  25  26
ATOM     26  C   UNL     1      -3.185   1.122  -4.117  0.00  0.00    +0.000 C 
BRANCH  26  27
ATOM     27  C   UNL     1      -4.146  -0.066  -4.280  0.00  0.00    +0.000 C 
ATOM     28  C   UNL     1      -4.446  -0.785  -2.955  0.00  0.00    +0.000 C 
ATOM     29  C   UNL     1      -3.958  -2.236  -2.876  0.00  0.00    +0.000 C 
ATOM     30  N   UNL     1      -4.422  -3.031  -4.008  0.00  0.00    +0.000 NA
ATOM     31  C   UNL     1      -3.874  -2.475  -5.246  0.00  0.00    +0.000 C 
ATOM     32  C   UNL     1      -4.301  -1.027  -5.468  0.00  0.00    +0.000 C 
ATOM     33  H   UNL     1      -5.443  -3.009  -4.039  0.00  0.00    +0.000 HD
ENDBRANCH  26  27
ENDBRANCH  25  26
ENDBRANCH  24  25
ENDBRANCH  23  24
ENDBRANCH  22  23
ENDBRANCH   4  22
TORSDOF 15
