REMARK  Name = Tivozanib
REMARK  8 active torsions:
REMARK  status: ('A' for Active; 'I' for Inactive)
REMARK    1  A    between atoms: C_1  and  O_2
REMARK    2  A    between atoms: O_2  and  C_3
REMARK    3  A    between atoms: C_4  and  O_5
REMARK    4  A    between atoms: O_5  and  C_6
REMARK    5  A    between atoms: C_9  and  O_10
REMARK    6  A    between atoms: O_10  and  C_11
REMARK    7  A    between atoms: C_15  and  N_16
REMARK    8  A    between atoms: C_23  and  C_24
REMARK                            x       y       z     vdW  Elec       q    Type
REMARK                         _______ _______ _______ _____ _____    ______ ____
ROOT
ATOM      1  C   UNL     1       4.321  -5.417   3.080  0.00  0.00    +0.000 A 
ATOM      2  C   UNL     1       4.269  -5.606   1.711  0.00  0.00    +0.000 A 
ATOM      3  C   UNL     1       3.097  -6.072   1.070  0.00  0.00    +0.000 A 
ATOM      4 CL   UNL     1       3.264  -5.674  -0.615  0.00  0.00    +0.000 Cl
ATOM      5  C   UNL     1       1.977  -6.573   1.803  0.00  0.00    +0.000 A 
ATOM      6  C   UNL     1       2.113  -6.484   3.222  0.00  0.00    +0.000 A 
ATOM      7  C   UNL     1       3.261  -5.899   3.846  0.00  0.00    +0.000 A 
ENDROOT
BRANCH   5   8
ATOM      8  N   UNL     1       0.741  -7.178   1.272  0.00  0.00    +0.000 N 
ATOM      9  C   UNL     1       0.452  -7.323  -0.078  0.00  0.00    +0.000 C 
ATOM     10  O   UNL     1       1.139  -6.864  -0.956  0.00  0.00    +0.000 OA
ATOM     11  N   UNL     1      -0.671  -8.032  -0.468  0.00  0.00    +0.000 N 
ATOM     12  C   UNL     1      -0.869  -8.117  -1.873  0.00  0.00    +0.000 A 
ATOM     13  N   UNL     1      -2.055  -7.947  -2.476  0.00  0.00    +0.000 NA
ATOM     14  O   UNL     1      -1.801  -8.009  -3.853  0.00  0.00    +0.000 OA
ATOM     15  C   UNL     1      -0.488  -8.304  -4.068  0.00  0.00    +0.000 A 
ATOM     16  C   UNL     1      -0.022  -8.509  -5.460  0.00  0.00    +0.000 C 
ATOM     17  C   UNL     1       0.138  -8.374  -2.853  0.00  0.00    +0.000 A 
ATOM     18  H   UNL     1       0.075  -7.529   1.948  0.00  0.00    +0.000 HD
ATOM     19  H   UNL     1      -1.508  -8.070   0.088  0.00  0.00    +0.000 HD
ENDBRANCH   5   8
BRANCH   1  20
ATOM     20  O   UNL     1       5.326  -4.666   3.658  0.00  0.00    +0.000 OA
BRANCH  20  25
ATOM     21  C   UNL     1       3.131  -0.793   0.791  0.00  0.00    +0.000 A 
ATOM     22  C   UNL     1       2.736  -2.090   1.061  0.00  0.00    +0.000 A 
ATOM     23  C   UNL     1       3.486  -2.817   1.979  0.00  0.00    +0.000 A 
ATOM     24  C   UNL     1       4.734  -2.470   2.502  0.00  0.00    +0.000 A 
ATOM     25  C   UNL     1       5.565  -3.334   3.280  0.00  0.00    +0.000 A 
ATOM     26  C   UNL     1       6.754  -2.809   3.790  0.00  0.00    +0.000 A 
ATOM     27  C   UNL     1       7.060  -1.486   3.515  0.00  0.00    +0.000 A 
ATOM     28  N   UNL     1       6.296  -0.671   2.748  0.00  0.00    +0.000 NA
ATOM     29  C   UNL     1       5.153  -1.160   2.228  0.00  0.00    +0.000 A 
ATOM     30  C   UNL     1       4.333  -0.354   1.409  0.00  0.00    +0.000 A 
BRANCH  21  32
ATOM     31  C   UNL     1       1.207   0.415  -0.060  0.00  0.00    +0.000 C 
ATOM     32  O   UNL     1       2.599   0.107  -0.095  0.00  0.00    +0.000 OA
ENDBRANCH  21  32
BRANCH  22  33
ATOM     33  O   UNL     1       1.769  -2.931   0.587  0.00  0.00    +0.000 OA
ATOM     34  C   UNL     1       0.804  -2.380  -0.247  0.00  0.00    +0.000 C 
ENDBRANCH  22  33
ENDBRANCH  20  25
ENDBRANCH   1  20
TORSDOF 5
