REMARK  Name = Tixocortol
REMARK  7 active torsions:
REMARK  status: ('A' for Active; 'I' for Inactive)
REMARK    1  A    between atoms: C_5  and  O_6
REMARK    2  A    between atoms: C_5  and  C_7
REMARK    3  A    between atoms: C_7  and  C_9
REMARK    4  A    between atoms: C_9  and  S_10
REMARK    5  A    between atoms: C_11  and  C_12
REMARK    6  A    between atoms: C_14  and  O_15
REMARK    7  A    between atoms: C_28  and  C_29
REMARK                            x       y       z     vdW  Elec       q    Type
REMARK                         _______ _______ _______ _____ _____    ______ ____
ROOT
ATOM      1  C   UNL     1       1.858  -0.066  -0.183  0.00  0.00    +0.000 C 
ATOM      2  C   UNL     1       2.261  -0.079  -1.541  0.00  0.00    +0.000 C 
ATOM      3  C   UNL     1       3.312  -0.443  -0.539  0.00  0.00    +0.000 C 
ATOM      4  C   UNL     1       2.655  -1.006   1.377  0.00  0.00    +0.000 C 
ATOM      5  C   UNL     1       2.791  -1.699   0.188  0.00  0.00    +0.000 C 
ATOM      6  C   UNL     1       2.063  -2.891  -0.286  0.00  0.00    +0.000 C 
ATOM      7  C   UNL     1       4.612  -1.569   0.701  0.00  0.00    +0.000 C 
ATOM      8  C   UNL     1       4.933  -0.071   1.498  0.00  0.00    +0.000 C 
ATOM      9  C   UNL     1       4.334   1.358   0.898  0.00  0.00    +0.000 C 
ATOM     10  C   UNL     1       2.609   1.344   0.706  0.00  0.00    +0.000 C 
ATOM     11  C   UNL     1       2.139   2.586  -0.022  0.00  0.00    +0.000 C 
ATOM     12  C   UNL     1       2.680   3.844   0.599  0.00  0.00    +0.000 C 
ATOM     13  C   UNL     1       4.163   3.886   0.825  0.00  0.00    +0.000 C 
ATOM     14  C   UNL     1       4.844   5.010   0.562  0.00  0.00    +0.000 C 
ATOM     15  C   UNL     1       6.176   5.056   1.164  0.00  0.00    +0.000 C 
ATOM     16  O   UNL     1       6.419   5.224   2.357  0.00  0.00    +0.000 OA
ATOM     17  C   UNL     1       7.152   4.382   0.346  0.00  0.00    +0.000 C 
ATOM     18  C   UNL     1       6.597   2.907   1.027  0.00  0.00    +0.000 C 
ATOM     19  C   UNL     1       4.886   2.709   1.473  0.00  0.00    +0.000 C 
ATOM     20  C   UNL     1       4.428   2.681   2.951  0.00  0.00    +0.000 C 
ENDROOT
BRANCH   4  21
ATOM     21  O   UNL     1       1.196  -0.976   1.679  0.00  0.00    +0.000 OA
ATOM     22  H   UNL     1       1.002  -1.078   2.623  0.00  0.00    +0.000 HD
ENDBRANCH   4  21
BRANCH   4  23
ATOM     23  C   UNL     1       2.908  -2.464   2.463  0.00  0.00    +0.000 C 
ATOM     24  O   UNL     1       3.413  -3.528   2.061  0.00  0.00    +0.000 OA
BRANCH  23  25
ATOM     25  C   UNL     1       2.373  -2.555   3.967  0.00  0.00    +0.000 C 
BRANCH  25  26
ATOM     26  S   UNL     1       3.027  -4.143   4.814  0.00  0.00    +0.000 S 
ATOM     27  H   UNL     1       2.557  -5.085   3.967  0.00  0.00    +0.000 HD
ENDBRANCH  25  26
ENDBRANCH  23  25
ENDBRANCH   4  23
BRANCH   8  28
ATOM     28  O   UNL     1       4.487  -0.260   2.858  0.00  0.00    +0.000 OA
ATOM     29  H   UNL     1       3.630   0.181   2.998  0.00  0.00    +0.000 HD
ENDBRANCH   8  28
TORSDOF 5
