REMARK  Name = Tizanidine
REMARK  1 active torsions:
REMARK  status: ('A' for Active; 'I' for Inactive)
REMARK    1  A    between atoms: C_3  and  N_4
REMARK                            x       y       z     vdW  Elec       q    Type
REMARK                         _______ _______ _______ _____ _____    ______ ____
ROOT
ATOM      1 CL   UNL     1       3.492  -0.033   0.123  0.00  0.00    +0.000 Cl
ATOM      2  C   UNL     1       1.766  -0.120   0.012  0.00  0.00    +0.000 A 
ATOM      3  C   UNL     1       0.901   1.018  -0.010  0.00  0.00    +0.000 A 
ATOM      4  C   UNL     1      -0.491   0.631   0.004  0.00  0.00    +0.000 A 
ATOM      5  N   UNL     1      -1.548   1.467   0.002  0.00  0.00    +0.000 NA
ATOM      6  S   UNL     1      -2.919   0.522  -0.003  0.00  0.00    +0.000 S 
ATOM      7  N   UNL     1      -2.256  -0.995   0.003  0.00  0.00    +0.000 NA
ATOM      8  C   UNL     1      -0.927  -0.827   0.005  0.00  0.00    +0.000 A 
ATOM      9  C   UNL     1       0.006  -1.878  -0.001  0.00  0.00    +0.000 A 
ATOM     10  C   UNL     1       1.338  -1.477   0.006  0.00  0.00    +0.000 A 
ENDROOT
BRANCH   3  11
ATOM     11  N   UNL     1       1.285   2.382  -0.088  0.00  0.00    +0.000 N 
ATOM     12  C   UNL     1       2.540   2.891   0.087  0.00  0.00    +0.000 C 
ATOM     13  N   UNL     1       2.967   3.568   1.113  0.00  0.00    +0.000 NA
ATOM     14  C   UNL     1       4.402   3.861   0.770  0.00  0.00    +0.000 C 
ATOM     15  C   UNL     1       4.740   2.961  -0.418  0.00  0.00    +0.000 C 
ATOM     16  N   UNL     1       3.413   2.752  -0.954  0.00  0.00    +0.000 N 
ATOM     17  H   UNL     1       0.543   2.983   0.265  0.00  0.00    +0.000 HD
ATOM     18  H   UNL     1       3.264   1.976  -1.581  0.00  0.00    +0.000 HD
ENDBRANCH   3  11
TORSDOF 1
