REMARK  Name = Tobramycin
REMARK  16 active torsions:
REMARK  status: ('A' for Active; 'I' for Inactive)
REMARK    1  A    between atoms: N_1  and  C_2
REMARK    2  A    between atoms: C_2  and  C_3
REMARK    3  A    between atoms: C_5  and  O_6
REMARK    4  A    between atoms: O_6  and  C_7
REMARK    5  A    between atoms: C_8  and  N_9
REMARK    6  A    between atoms: C_11  and  N_12
REMARK    7  A    between atoms: C_13  and  O_14
REMARK    8  A    between atoms: O_14  and  C_15
REMARK    9  A    between atoms: C_17  and  C_18
REMARK   10  A    between atoms: C_18  and  O_19
REMARK   11  A    between atoms: C_20  and  O_21
REMARK   12  A    between atoms: C_22  and  N_23
REMARK   13  A    between atoms: C_24  and  O_25
REMARK   14  A    between atoms: C_26  and  O_27
REMARK   15  A    between atoms: C_28  and  N_29
REMARK   16  A    between atoms: C_31  and  O_32
REMARK                            x       y       z     vdW  Elec       q    Type
REMARK                         _______ _______ _______ _____ _____    ______ ____
ROOT
ATOM      1  C   UNL     1      -2.094  -0.945  -1.883  0.00  0.00    +0.000 C 
ATOM      2  C   UNL     1      -1.775  -0.899  -0.382  0.00  0.00    +0.000 C 
ATOM      3  C   UNL     1      -0.527   0.001  -0.215  0.00  0.00    +0.000 C 
ATOM      4  C   UNL     1       0.734  -0.551  -0.810  0.00  0.00    +0.000 C 
ATOM      5  C   UNL     1       0.480  -0.835  -2.334  0.00  0.00    +0.000 C 
ATOM      6  C   UNL     1      -0.847  -1.618  -2.581  0.00  0.00    +0.000 C 
ENDROOT
BRANCH   2   7
ATOM      7  N   UNL     1      -1.904  -2.075   0.467  0.00  0.00    +0.000 NA
ATOM      8  H   UNL     1      -1.162  -2.722   0.548  0.00  0.00    +0.000 HD
ATOM      9  H   UNL     1      -2.785  -2.561   0.252  0.00  0.00    +0.000 HD
ENDBRANCH   2   7
BRANCH   4  10
ATOM     10  N   UNL     1       1.195  -1.600   0.100  0.00  0.00    +0.000 NA
ATOM     11  H   UNL     1       0.570  -2.388   0.104  0.00  0.00    +0.000 HD
ATOM     12  H   UNL     1       1.123  -1.239   1.061  0.00  0.00    +0.000 HD
ENDBRANCH   4  10
BRANCH   6  13
ATOM     13  O   UNL     1      -0.709  -2.989  -2.170  0.00  0.00    +0.000 OA
ATOM     14  H   UNL     1      -0.630  -3.009  -1.222  0.00  0.00    +0.000 HD
ENDBRANCH   6  13
BRANCH   5  15
ATOM     15  O   UNL     1       0.300   0.313  -3.191  0.00  0.00    +0.000 OA
BRANCH  15  16
ATOM     16  C   UNL     1       1.038   1.497  -2.962  0.00  0.00    +0.000 C 
ATOM     17  O   UNL     1       2.396   1.304  -3.333  0.00  0.00    +0.000 OA
ATOM     18  C   UNL     1       3.228   2.482  -3.280  0.00  0.00    +0.000 C 
ATOM     19  C   UNL     1       2.604   3.656  -4.066  0.00  0.00    +0.000 C 
ATOM     20  C   UNL     1       1.151   3.944  -3.624  0.00  0.00    +0.000 C 
ATOM     21  C   UNL     1       0.345   2.641  -3.737  0.00  0.00    +0.000 C 
BRANCH  20  22
ATOM     22  N   UNL     1       1.093   4.551  -2.278  0.00  0.00    +0.000 NA
ATOM     23  H   UNL     1       1.637   4.003  -1.596  0.00  0.00    +0.000 HD
ATOM     24  H   UNL     1       0.144   4.567  -1.913  0.00  0.00    +0.000 HD
ENDBRANCH  20  22
BRANCH  21  25
ATOM     25  O   UNL     1       0.110   2.321  -5.115  0.00  0.00    +0.000 OA
ATOM     26  H   UNL     1       0.564   1.479  -5.298  0.00  0.00    +0.000 HD
ENDBRANCH  21  25
BRANCH  19  27
ATOM     27  O   UNL     1       2.660   3.349  -5.471  0.00  0.00    +0.000 OA
ATOM     28  H   UNL     1       2.333   2.441  -5.600  0.00  0.00    +0.000 HD
ENDBRANCH  19  27
BRANCH  18  29
ATOM     29  C   UNL     1       3.674   2.852  -1.848  0.00  0.00    +0.000 C 
BRANCH  29  30
ATOM     30  O   UNL     1       2.614   2.820  -0.894  0.00  0.00    +0.000 OA
ATOM     31  H   UNL     1       2.511   1.880  -0.661  0.00  0.00    +0.000 HD
ENDBRANCH  29  30
ENDBRANCH  18  29
ENDBRANCH  15  16
ENDBRANCH   5  15
BRANCH   1  32
ATOM     32  O   UNL     1      -2.340   0.443  -2.287  0.00  0.00    +0.000 OA
BRANCH  32  35
ATOM     33  C   UNL     1      -2.927   1.864   0.431  0.00  0.00    +0.000 C 
ATOM     34  O   UNL     1      -3.817   1.084  -0.396  0.00  0.00    +0.000 OA
ATOM     35  C   UNL     1      -3.574   1.073  -1.811  0.00  0.00    +0.000 C 
ATOM     36  C   UNL     1      -3.661   2.563  -2.258  0.00  0.00    +0.000 C 
ATOM     37  C   UNL     1      -2.649   3.411  -1.464  0.00  0.00    +0.000 C 
ATOM     38  C   UNL     1      -2.871   3.336   0.063  0.00  0.00    +0.000 C 
BRANCH  36  39
ATOM     39  N   UNL     1      -3.490   2.732  -3.703  0.00  0.00    +0.000 NA
ATOM     40  H   UNL     1      -2.612   2.301  -4.002  0.00  0.00    +0.000 HD
ATOM     41  H   UNL     1      -3.434   3.719  -3.945  0.00  0.00    +0.000 HD
ENDBRANCH  36  39
BRANCH  38  42
ATOM     42  O   UNL     1      -1.757   3.980   0.703  0.00  0.00    +0.000 OA
ATOM     43  H   UNL     1      -0.922   3.627   0.343  0.00  0.00    +0.000 HD
ENDBRANCH  38  42
BRANCH  33  44
ATOM     44  C   UNL     1      -2.940   1.353   1.903  0.00  0.00    +0.000 C 
BRANCH  44  45
ATOM     45  N   UNL     1      -4.102   0.511   2.207  0.00  0.00    +0.000 NA
ATOM     46  H   UNL     1      -3.926  -0.028   3.053  0.00  0.00    +0.000 HD
ATOM     47  H   UNL     1      -4.163  -0.188   1.458  0.00  0.00    +0.000 HD
ENDBRANCH  44  45
ENDBRANCH  33  44
ENDBRANCH  32  35
ENDBRANCH   1  32
TORSDOF 16
