REMARK  Name = Tocainide
REMARK  6 active torsions:
REMARK  status: ('A' for Active; 'I' for Inactive)
REMARK    1  A    between atoms: C_1  and  C_2
REMARK    2  A    between atoms: C_2  and  N_3
REMARK    3  A    between atoms: C_2  and  C_4
REMARK    4  A    between atoms: N_6  and  C_7
REMARK    5  A    between atoms: C_8  and  C_9
REMARK    6  A    between atoms: C_13  and  C_14
REMARK                            x       y       z     vdW  Elec       q    Type
REMARK                         _______ _______ _______ _____ _____    ______ ____
ROOT
ATOM      1  C   UNL     1       3.012   1.007   1.089  0.00  0.00    +0.000 C 
ATOM      2  O   UNL     1       2.185   1.753   1.626  0.00  0.00    +0.000 OA
ATOM      3  N   UNL     1       4.374   1.024   1.370  0.00  0.00    +0.000 N 
ATOM      4  H   UNL     1       4.992   0.748   0.615  0.00  0.00    +0.000 HD
ENDROOT
BRANCH   3   5
ATOM      5  C   UNL     1       4.906   1.749   2.473  0.00  0.00    +0.000 A 
ATOM      6  C   UNL     1       4.306   1.630   3.751  0.00  0.00    +0.000 A 
ATOM      7  C   UNL     1       3.145   0.720   4.064  0.00  0.00    +0.000 C 
ATOM      8  C   UNL     1       4.829   2.352   4.838  0.00  0.00    +0.000 A 
ATOM      9  C   UNL     1       5.945   3.163   4.690  0.00  0.00    +0.000 A 
ATOM     10  C   UNL     1       6.556   3.264   3.445  0.00  0.00    +0.000 A 
ATOM     11  C   UNL     1       6.061   2.557   2.328  0.00  0.00    +0.000 A 
ATOM     12  C   UNL     1       6.762   2.783   1.015  0.00  0.00    +0.000 C 
ENDBRANCH   3   5
BRANCH   1  14
ATOM     13  C   UNL     1       1.032  -0.099   0.009  0.00  0.00    +0.000 C 
ATOM     14  C   UNL     1       2.565  -0.019   0.027  0.00  0.00    +0.000 C 
BRANCH  14  15
ATOM     15  N   UNL     1       3.071   0.421  -1.285  0.00  0.00    +0.000 NA
ATOM     16  H   UNL     1       2.692   1.357  -1.454  0.00  0.00    +0.000 HD
ATOM     17  H   UNL     1       2.650  -0.163  -2.010  0.00  0.00    +0.000 HD
ENDBRANCH  14  15
ENDBRANCH   1  14
TORSDOF 3
