REMARK  Name = Tofacitinib
REMARK  5 active torsions:
REMARK  status: ('A' for Active; 'I' for Inactive)
REMARK    1  A    between atoms: C_1  and  C_2
REMARK    2  A    between atoms: C_7  and  N_8
REMARK    3  A    between atoms: N_8  and  C_9
REMARK    4  A    between atoms: C_19  and  C_21
REMARK    5  A    between atoms: C_21  and  C_22
REMARK                            x       y       z     vdW  Elec       q    Type
REMARK                         _______ _______ _______ _____ _____    ______ ____
ROOT
ATOM      1  C   UNL     1      -1.118  -0.047   1.913  0.00  0.00    +0.000 C 
ATOM      2  C   UNL     1      -1.040  -0.027   0.381  0.00  0.00    +0.000 C 
ATOM      3  C   UNL     1      -0.326  -1.284  -0.149  0.00  0.00    +0.000 C 
ATOM      4  C   UNL     1       1.165  -1.286   0.157  0.00  0.00    +0.000 C 
ATOM      5  N   UNL     1       1.776  -0.068  -0.360  0.00  0.00    +0.000 N 
ATOM      6  C   UNL     1       1.173   1.174   0.131  0.00  0.00    +0.000 C 
ATOM      7  C   UNL     1      -0.358   1.266  -0.134  0.00  0.00    +0.000 C 
ATOM      8  C   UNL     1       2.921   0.002  -1.145  0.00  0.00    +0.000 C 
ATOM      9  O   UNL     1       3.400   1.094  -1.466  0.00  0.00    +0.000 OA
ENDROOT
BRANCH   7  10
ATOM     10  N   UNL     1      -0.968   2.502   0.408  0.00  0.00    +0.000 N 
ATOM     11  C   UNL     1      -0.248   3.428   1.268  0.00  0.00    +0.000 C 
ATOM     12  C   UNL     1      -2.325   2.750   0.210  0.00  0.00    +0.000 A 
ATOM     13  N   UNL     1      -3.258   1.828   0.584  0.00  0.00    +0.000 NA
ATOM     14  C   UNL     1      -4.565   2.048   0.339  0.00  0.00    +0.000 A 
ATOM     15  N   UNL     1      -5.119   3.094  -0.288  0.00  0.00    +0.000 NA
ATOM     16  C   UNL     1      -4.186   3.995  -0.623  0.00  0.00    +0.000 A 
ATOM     17  C   UNL     1      -2.819   3.925  -0.391  0.00  0.00    +0.000 A 
ATOM     18  C   UNL     1      -2.264   5.131  -0.900  0.00  0.00    +0.000 A 
ATOM     19  C   UNL     1      -3.290   5.878  -1.436  0.00  0.00    +0.000 A 
ATOM     20  N   UNL     1      -4.448   5.162  -1.285  0.00  0.00    +0.000 N 
ATOM     21  H   UNL     1      -5.368   5.431  -1.601  0.00  0.00    +0.000 HD
ENDBRANCH   7  10
BRANCH   8  22
ATOM     22  C   UNL     1       3.549  -1.305  -1.601  0.00  0.00    +0.000 C 
BRANCH  22  23
ATOM     23  C   UNL     1       4.747  -1.021  -2.493  0.00  0.00    +0.000 C 
ATOM     24  N   UNL     1       5.740  -0.786  -3.233  0.00  0.00    +0.000 NA
ENDBRANCH  22  23
ENDBRANCH   8  22
TORSDOF 3
