REMARK  Name = Tolazoline
REMARK  2 active torsions:
REMARK  status: ('A' for Active; 'I' for Inactive)
REMARK    1  A    between atoms: C_1  and  C_2
REMARK    2  A    between atoms: C_1  and  C_7
REMARK                            x       y       z     vdW  Elec       q    Type
REMARK                         _______ _______ _______ _____ _____    ______ ____
ROOT
ATOM      1  C   UNL     1       0.928   0.057  -0.139  0.00  0.00    +0.000 C 
ENDROOT
BRANCH   1   2
ATOM      2  C   UNL     1       0.293   1.436  -0.108  0.00  0.00    +0.000 C 
ATOM      3  N   UNL     1      -0.375   1.861   0.933  0.00  0.00    +0.000 NA
ATOM      4  C   UNL     1      -0.739   3.266   0.575  0.00  0.00    +0.000 C 
ATOM      5  C   UNL     1       0.204   3.654  -0.566  0.00  0.00    +0.000 C 
ATOM      6  N   UNL     1       0.455   2.348  -1.134  0.00  0.00    +0.000 N 
ATOM      7  H   UNL     1       1.232   2.230  -1.771  0.00  0.00    +0.000 HD
ENDBRANCH   1   2
BRANCH   1   8
ATOM      8  C   UNL     1       2.446   0.055  -0.077  0.00  0.00    +0.000 A 
ATOM      9  C   UNL     1       3.141  -1.164  -0.042  0.00  0.00    +0.000 A 
ATOM     10  C   UNL     1       4.532  -1.185   0.114  0.00  0.00    +0.000 A 
ATOM     11  C   UNL     1       5.252   0.007   0.174  0.00  0.00    +0.000 A 
ATOM     12  C   UNL     1       4.582   1.220   0.106  0.00  0.00    +0.000 A 
ATOM     13  C   UNL     1       3.194   1.239   0.005  0.00  0.00    +0.000 A 
ENDBRANCH   1   8
TORSDOF 2
