REMARK  Name = Tolazamide
REMARK  4 active torsions:
REMARK  status: ('A' for Active; 'I' for Inactive)
REMARK    1  A    between atoms: C_1  and  C_2
REMARK    2  A    between atoms: C_5  and  S_8
REMARK    3  A    between atoms: S_8  and  N_11
REMARK    4  A    between atoms: N_14  and  N_15
REMARK                            x       y       z     vdW  Elec       q    Type
REMARK                         _______ _______ _______ _____ _____    ______ ____
ROOT
ATOM      1  N   UNL     1      -4.201   1.625  -0.097  0.00  0.00    +0.000 N 
ATOM      2  C   UNL     1      -5.581   1.845  -0.213  0.00  0.00    +0.000 C 
ATOM      3  O   UNL     1      -6.336   0.895  -0.398  0.00  0.00    +0.000 OA
ATOM      4  N   UNL     1      -6.023   3.170  -0.075  0.00  0.00    +0.000 N 
ATOM      5  H   UNL     1      -3.554   2.389  -0.020  0.00  0.00    +0.000 HD
ATOM      6  H   UNL     1      -5.357   3.932  -0.082  0.00  0.00    +0.000 HD
ENDROOT
BRANCH   4   7
ATOM      7  N   UNL     1      -7.445   3.504  -0.069  0.00  0.00    +0.000 NA
ATOM      8  C   UNL     1      -8.205   2.635   0.851  0.00  0.00    +0.000 C 
ATOM      9  C   UNL     1      -9.604   2.321   0.325  0.00  0.00    +0.000 C 
ATOM     10  C   UNL     1     -10.636   3.381   0.661  0.00  0.00    +0.000 C 
ATOM     11  C   UNL     1     -10.268   4.768   0.149  0.00  0.00    +0.000 C 
ATOM     12  C   UNL     1      -9.032   5.347   0.835  0.00  0.00    +0.000 C 
ATOM     13  C   UNL     1      -7.689   4.944   0.187  0.00  0.00    +0.000 C 
ENDBRANCH   4   7
BRANCH   1  14
ATOM     14  S   UNL     1      -3.640   0.027  -0.061  0.00  0.00    +0.000 S 
ATOM     15  O   UNL     1      -3.958  -0.586  -1.333  0.00  0.00    +0.000 OA
ATOM     16  O   UNL     1      -4.038  -0.551   1.205  0.00  0.00    +0.000 OA
BRANCH  14  21
ATOM     17  C   UNL     1       2.464  -0.004  -0.013  0.00  0.00    +0.000 C 
ATOM     18  C   UNL     1       0.962  -0.003   0.004  0.00  0.00    +0.000 A 
ATOM     19  C   UNL     1       0.232  -1.196   0.005  0.00  0.00    +0.000 A 
ATOM     20  C   UNL     1      -1.169  -1.166  -0.001  0.00  0.00    +0.000 A 
ATOM     21  C   UNL     1      -1.852   0.064  -0.008  0.00  0.00    +0.000 A 
ATOM     22  C   UNL     1      -1.129   1.252   0.001  0.00  0.00    +0.000 A 
ATOM     23  C   UNL     1       0.270   1.214   0.006  0.00  0.00    +0.000 A 
ENDBRANCH  14  21
ENDBRANCH   1  14
TORSDOF 3
