REMARK  Name = Tolbutamide
REMARK  7 active torsions:
REMARK  status: ('A' for Active; 'I' for Inactive)
REMARK    1  A    between atoms: C_1  and  C_2
REMARK    2  A    between atoms: C_2  and  C_3
REMARK    3  A    between atoms: C_3  and  C_4
REMARK    4  A    between atoms: C_4  and  N_5
REMARK    5  A    between atoms: N_8  and  S_9
REMARK    6  A    between atoms: S_9  and  C_12
REMARK    7  A    between atoms: C_15  and  C_16
REMARK                            x       y       z     vdW  Elec       q    Type
REMARK                         _______ _______ _______ _____ _____    ______ ____
ROOT
ATOM      1  N   UNL     1       5.154  -1.992   2.101  0.00  0.00    +0.000 N 
ATOM      2  C   UNL     1       6.525  -2.123   2.232  0.00  0.00    +0.000 C 
ATOM      3  O   UNL     1       7.288  -1.441   1.556  0.00  0.00    +0.000 OA
ATOM      4  N   UNL     1       6.991  -3.065   3.167  0.00  0.00    +0.000 N 
ATOM      5  H   UNL     1       4.527  -2.552   2.656  0.00  0.00    +0.000 HD
ATOM      6  H   UNL     1       6.369  -3.628   3.728  0.00  0.00    +0.000 HD
ENDROOT
BRANCH   4   7
ATOM      7  S   UNL     1       8.657  -3.297   3.395  0.00  0.00    +0.000 S 
ATOM      8  O   UNL     1       9.208  -3.888   2.194  0.00  0.00    +0.000 OA
ATOM      9  O   UNL     1       9.204  -2.090   3.979  0.00  0.00    +0.000 OA
BRANCH   7  10
ATOM     10  C   UNL     1       8.798  -4.571   4.666  0.00  0.00    +0.000 A 
ATOM     11  C   UNL     1       9.286  -4.255   5.943  0.00  0.00    +0.000 A 
ATOM     12  C   UNL     1       9.436  -5.261   6.911  0.00  0.00    +0.000 A 
ATOM     13  C   UNL     1       9.129  -6.594   6.612  0.00  0.00    +0.000 A 
ATOM     14  C   UNL     1       9.262  -7.672   7.654  0.00  0.00    +0.000 C 
ATOM     15  C   UNL     1       8.704  -6.909   5.313  0.00  0.00    +0.000 A 
ATOM     16  C   UNL     1       8.555  -5.908   4.339  0.00  0.00    +0.000 A 
ENDBRANCH   7  10
ENDBRANCH   4   7
BRANCH   1  17
ATOM     17  C   UNL     1       4.593  -1.024   1.147  0.00  0.00    +0.000 C 
BRANCH  17  18
ATOM     18  C   UNL     1       3.060  -0.990   1.113  0.00  0.00    +0.000 C 
BRANCH  18  20
ATOM     19  C   UNL     1       0.999   0.056   0.083  0.00  0.00    +0.000 C 
ATOM     20  C   UNL     1       2.523   0.037   0.102  0.00  0.00    +0.000 C 
ENDBRANCH  18  20
ENDBRANCH  17  18
ENDBRANCH   1  17
TORSDOF 5
