REMARK  Name = Tolcapone
REMARK  6 active torsions:
REMARK  status: ('A' for Active; 'I' for Inactive)
REMARK    1  A    between atoms: C_1  and  C_2
REMARK    2  A    between atoms: C_5  and  C_8
REMARK    3  A    between atoms: C_8  and  C_10
REMARK    4  A    between atoms: C_12  and  N_18
REMARK    5  A    between atoms: C_13  and  O_14
REMARK    6  A    between atoms: C_15  and  O_16
REMARK                            x       y       z     vdW  Elec       q    Type
REMARK                         _______ _______ _______ _____ _____    ______ ____
ROOT
ATOM      1  C   UNL     1      -4.025   0.673  -1.214  0.00  0.00    +0.000 A 
ATOM      2  C   UNL     1      -5.430   0.689  -1.237  0.00  0.00    +0.000 A 
ATOM      3  C   UNL     1      -6.113   1.272  -2.324  0.00  0.00    +0.000 A 
ATOM      4  C   UNL     1      -5.398   1.843  -3.387  0.00  0.00    +0.000 A 
ATOM      5  C   UNL     1      -4.005   1.822  -3.341  0.00  0.00    +0.000 A 
ATOM      6  C   UNL     1      -3.322   1.236  -2.283  0.00  0.00    +0.000 A 
ENDROOT
BRANCH   3   7
ATOM      7  N   UNL     1      -7.579   1.274  -2.324  0.00  0.00    +0.000 N 
ATOM      8  O   UNL     1      -8.166   0.763  -1.362  0.00  0.00    +0.000 OA
ATOM      9  O   UNL     1      -8.146   1.794  -3.299  0.00  0.00    +0.000 OA
ENDBRANCH   3   7
BRANCH   1  10
ATOM     10  C   UNL     1      -3.311   0.023  -0.071  0.00  0.00    +0.000 C 
ATOM     11  O   UNL     1      -3.950  -0.550   0.808  0.00  0.00    +0.000 OA
BRANCH  10  16
ATOM     12  C   UNL     1       2.475  -0.002  -0.014  0.00  0.00    +0.000 C 
ATOM     13  C   UNL     1       0.974  -0.007   0.007  0.00  0.00    +0.000 A 
ATOM     14  C   UNL     1       0.253  -1.209   0.013  0.00  0.00    +0.000 A 
ATOM     15  C   UNL     1      -1.146  -1.198   0.017  0.00  0.00    +0.000 A 
ATOM     16  C   UNL     1      -1.830   0.020   0.004  0.00  0.00    +0.000 A 
ATOM     17  C   UNL     1      -1.119   1.224   0.035  0.00  0.00    +0.000 A 
ATOM     18  C   UNL     1       0.277   1.208   0.021  0.00  0.00    +0.000 A 
ENDBRANCH  10  16
ENDBRANCH   1  10
BRANCH   4  19
ATOM     19  O   UNL     1      -5.944   2.430  -4.499  0.00  0.00    +0.000 OA
ATOM     20  H   UNL     1      -6.925   2.379  -4.449  0.00  0.00    +0.000 HD
ENDBRANCH   4  19
BRANCH   5  21
ATOM     21  O   UNL     1      -3.251   2.374  -4.338  0.00  0.00    +0.000 OA
ATOM     22  H   UNL     1      -3.880   2.736  -4.993  0.00  0.00    +0.000 HD
ENDBRANCH   5  21
TORSDOF 5
