REMARK  Name = Tolfenamic acid
REMARK  5 active torsions:
REMARK  status: ('A' for Active; 'I' for Inactive)
REMARK    1  A    between atoms: C_1  and  C_2
REMARK    2  A    between atoms: C_8  and  N_9
REMARK    3  A    between atoms: N_9  and  C_10
REMARK    4  A    between atoms: C_15  and  C_16
REMARK    5  A    between atoms: C_16  and  O_17
REMARK                            x       y       z     vdW  Elec       q    Type
REMARK                         _______ _______ _______ _____ _____    ______ ____
ROOT
ATOM      1  N   UNL     1      -2.245   2.378   0.142  0.00  0.00    +0.000 N 
ATOM      2  H   UNL     1      -3.243   2.347  -0.056  0.00  0.00    +0.000 HD
ENDROOT
BRANCH   1  10
ATOM      3  C   UNL     1       0.787   2.098   0.297  0.00  0.00    +0.000 C 
ATOM      4  C   UNL     1      -0.180   0.945   0.186  0.00  0.00    +0.000 A 
ATOM      5  C   UNL     1       0.342  -0.355   0.087  0.00  0.00    +0.000 A 
ATOM      6 CL   UNL     1       2.046  -0.664   0.012  0.00  0.00    +0.000 Cl
ATOM      7  C   UNL     1      -0.494  -1.469   0.031  0.00  0.00    +0.000 A 
ATOM      8  C   UNL     1      -1.874  -1.314   0.028  0.00  0.00    +0.000 A 
ATOM      9  C   UNL     1      -2.424  -0.033   0.059  0.00  0.00    +0.000 A 
ATOM     10  C   UNL     1      -1.598   1.113   0.118  0.00  0.00    +0.000 A 
ENDBRANCH   1  10
BRANCH   1  11
ATOM     11  C   UNL     1      -1.675   3.639  -0.150  0.00  0.00    +0.000 A 
ATOM     12  C   UNL     1      -1.820   4.603   0.873  0.00  0.00    +0.000 A 
ATOM     13  C   UNL     1      -1.146   5.817   0.818  0.00  0.00    +0.000 A 
ATOM     14  C   UNL     1      -0.266   6.055  -0.227  0.00  0.00    +0.000 A 
ATOM     15  C   UNL     1      -0.147   5.136  -1.278  0.00  0.00    +0.000 A 
ATOM     16  C   UNL     1      -0.895   3.940  -1.304  0.00  0.00    +0.000 A 
BRANCH  16  17
ATOM     17  C   UNL     1      -0.682   2.913  -2.411  0.00  0.00    +0.000 C 
ATOM     18  O   UNL     1      -1.359   1.902  -2.565  0.00  0.00    +0.000 OA
BRANCH  17  19
ATOM     19  O   UNL     1       0.377   3.112  -3.230  0.00  0.00    +0.000 OA
ATOM     20  H   UNL     1       0.936   3.893  -3.112  0.00  0.00    +0.000 HD
ENDBRANCH  17  19
ENDBRANCH  16  17
ENDBRANCH   1  11
TORSDOF 4
