REMARK  Name = Tolmetin
REMARK  7 active torsions:
REMARK  status: ('A' for Active; 'I' for Inactive)
REMARK    1  A    between atoms: C_1  and  N_2
REMARK    2  A    between atoms: C_3  and  C_4
REMARK    3  A    between atoms: C_4  and  C_5
REMARK    4  A    between atoms: C_5  and  O_6
REMARK    5  A    between atoms: C_10  and  C_11
REMARK    6  A    between atoms: C_11  and  C_13
REMARK    7  A    between atoms: C_16  and  C_17
REMARK                            x       y       z     vdW  Elec       q    Type
REMARK                         _______ _______ _______ _____ _____    ______ ____
ROOT
ATOM      1  C   UNL     1       2.220  -0.359  -0.313  0.00  0.00    +0.000 C 
ATOM      2  N   UNL     1       0.798  -0.088  -0.136  0.00  0.00    +0.000 N 
ATOM      3  C   UNL     1       0.029   1.080  -0.052  0.00  0.00    +0.000 A 
ATOM      4  C   UNL     1      -1.304   0.648  -0.029  0.00  0.00    +0.000 A 
ATOM      5  C   UNL     1      -1.346  -0.757  -0.032  0.00  0.00    +0.000 A 
ATOM      6  C   UNL     1      -0.043  -1.200  -0.003  0.00  0.00    +0.000 A 
ENDROOT
BRANCH   6   7
ATOM      7  C   UNL     1       0.410  -2.584   0.045  0.00  0.00    +0.000 C 
ATOM      8  O   UNL     1       0.175  -3.375  -0.863  0.00  0.00    +0.000 OA
BRANCH   7   9
ATOM      9  C   UNL     1       1.231  -3.037   1.222  0.00  0.00    +0.000 A 
ATOM     10  C   UNL     1       1.787  -4.321   1.210  0.00  0.00    +0.000 A 
ATOM     11  C   UNL     1       2.567  -4.761   2.284  0.00  0.00    +0.000 A 
ATOM     12  C   UNL     1       2.828  -3.916   3.370  0.00  0.00    +0.000 A 
ATOM     13  C   UNL     1       3.630  -4.386   4.546  0.00  0.00    +0.000 C 
ATOM     14  C   UNL     1       2.306  -2.622   3.367  0.00  0.00    +0.000 A 
ATOM     15  C   UNL     1       1.487  -2.200   2.321  0.00  0.00    +0.000 A 
ENDBRANCH   7   9
ENDBRANCH   6   7
BRANCH   3  16
ATOM     16  C   UNL     1       0.367   2.585  -0.035  0.00  0.00    +0.000 C 
BRANCH  16  17
ATOM     17  C   UNL     1       1.782   3.090   0.069  0.00  0.00    +0.000 C 
ATOM     18  O   UNL     1       2.123   4.251  -0.182  0.00  0.00    +0.000 OA
BRANCH  17  19
ATOM     19  O   UNL     1       2.652   2.241   0.619  0.00  0.00    +0.000 OA
ATOM     20  H   UNL     1       2.132   1.490   0.948  0.00  0.00    +0.000 HD
ENDBRANCH  17  19
ENDBRANCH  16  17
ENDBRANCH   3  16
TORSDOF 5
