REMARK  Name = Tolnaftate
REMARK  6 active torsions:
REMARK  status: ('A' for Active; 'I' for Inactive)
REMARK    1  A    between atoms: C_1  and  N_2
REMARK    2  A    between atoms: N_2  and  C_3
REMARK    3  A    between atoms: N_2  and  C_16
REMARK    4  A    between atoms: C_3  and  O_5
REMARK    5  A    between atoms: O_5  and  C_6
REMARK    6  A    between atoms: C_20  and  C_21
REMARK                            x       y       z     vdW  Elec       q    Type
REMARK                         _______ _______ _______ _____ _____    ______ ____
ROOT
ATOM      1  C   UNL     1       3.427   0.553  -1.162  0.00  0.00    +0.000 C 
ATOM      2  S   UNL     1       5.127   0.585  -1.220  0.00  0.00    +0.000 S 
ENDROOT
BRANCH   1   4
ATOM      3  C   UNL     1       1.168   0.041  -0.112  0.00  0.00    +0.000 C 
ATOM      4  N   UNL     1       2.637   0.074  -0.077  0.00  0.00    +0.000 N 
BRANCH   4   5
ATOM      5  C   UNL     1       3.250  -0.389   1.146  0.00  0.00    +0.000 A 
ATOM      6  C   UNL     1       2.862  -1.577   1.773  0.00  0.00    +0.000 A 
ATOM      7  C   UNL     1       3.631  -2.096   2.828  0.00  0.00    +0.000 A 
ATOM      8  C   UNL     1       4.781  -1.434   3.269  0.00  0.00    +0.000 A 
ATOM      9  C   UNL     1       5.139  -0.216   2.703  0.00  0.00    +0.000 A 
ATOM     10  C   UNL     1       6.380   0.525   3.099  0.00  0.00    +0.000 C 
ATOM     11  C   UNL     1       4.331   0.314   1.696  0.00  0.00    +0.000 A 
ENDBRANCH   4   5
ENDBRANCH   1   4
BRANCH   1  12
ATOM     12  O   UNL     1       2.689   1.012  -2.294  0.00  0.00    +0.000 OA
BRANCH  12  13
ATOM     13  C   UNL     1       3.254   1.412  -3.554  0.00  0.00    +0.000 A 
ATOM     14  C   UNL     1       2.785   2.576  -4.165  0.00  0.00    +0.000 A 
ATOM     15  C   UNL     1       3.384   3.016  -5.370  0.00  0.00    +0.000 A 
ATOM     16  C   UNL     1       2.926   4.148  -6.070  0.00  0.00    +0.000 A 
ATOM     17  C   UNL     1       3.526   4.535  -7.275  0.00  0.00    +0.000 A 
ATOM     18  C   UNL     1       4.605   3.822  -7.787  0.00  0.00    +0.000 A 
ATOM     19  C   UNL     1       5.093   2.715  -7.098  0.00  0.00    +0.000 A 
ATOM     20  C   UNL     1       4.481   2.302  -5.907  0.00  0.00    +0.000 A 
ATOM     21  C   UNL     1       4.939   1.151  -5.268  0.00  0.00    +0.000 A 
ATOM     22  C   UNL     1       4.270   0.667  -4.152  0.00  0.00    +0.000 A 
ENDBRANCH  12  13
ENDBRANCH   1  12
TORSDOF 4
