REMARK  Name = Tolterodine
REMARK  13 active torsions:
REMARK  status: ('A' for Active; 'I' for Inactive)
REMARK    1  A    between atoms: C_1  and  C_2
REMARK    2  A    between atoms: C_2  and  C_3
REMARK    3  A    between atoms: C_2  and  N_4
REMARK    4  A    between atoms: N_4  and  C_5
REMARK    5  A    between atoms: N_4  and  C_22
REMARK    6  A    between atoms: C_5  and  C_6
REMARK    7  A    between atoms: C_6  and  C_7
REMARK    8  A    between atoms: C_7  and  C_8
REMARK    9  A    between atoms: C_7  and  C_14
REMARK   10  A    between atoms: C_15  and  O_16
REMARK   11  A    between atoms: C_19  and  C_20
REMARK   12  A    between atoms: C_22  and  C_23
REMARK   13  A    between atoms: C_22  and  C_24
REMARK                            x       y       z     vdW  Elec       q    Type
REMARK                         _______ _______ _______ _____ _____    ______ ____
ROOT
ATOM      1  C   UNL     1       0.432  -1.179  -3.433  0.00  0.00    +0.000 C 
ENDROOT
BRANCH   1   2
ATOM      2  C   UNL     1      -1.090  -1.069  -3.513  0.00  0.00    +0.000 A 
ATOM      3  C   UNL     1      -1.789   0.124  -3.538  0.00  0.00    +0.000 A 
ATOM      4  C   UNL     1      -3.185   0.128  -3.388  0.00  0.00    +0.000 A 
ATOM      5  C   UNL     1      -3.909  -1.075  -3.320  0.00  0.00    +0.000 A 
ATOM      6  C   UNL     1      -3.249  -2.276  -3.360  0.00  0.00    +0.000 A 
ATOM      7  C   UNL     1      -3.874  -3.636  -3.255  0.00  0.00    +0.000 C 
ATOM      8  C   UNL     1      -1.860  -2.240  -3.424  0.00  0.00    +0.000 A 
BRANCH   3   9
ATOM      9  O   UNL     1      -1.202   1.350  -3.685  0.00  0.00    +0.000 OA
ATOM     10  H   UNL     1      -0.300   1.240  -4.021  0.00  0.00    +0.000 HD
ENDBRANCH   3   9
ENDBRANCH   1   2
BRANCH   1  11
ATOM     11  C   UNL     1       0.941  -1.095  -2.019  0.00  0.00    +0.000 A 
ATOM     12  C   UNL     1       0.526  -2.028  -1.058  0.00  0.00    +0.000 A 
ATOM     13  C   UNL     1       0.956  -1.941   0.254  0.00  0.00    +0.000 A 
ATOM     14  C   UNL     1       1.798  -0.902   0.626  0.00  0.00    +0.000 A 
ATOM     15  C   UNL     1       2.213   0.042  -0.315  0.00  0.00    +0.000 A 
ATOM     16  C   UNL     1       1.799  -0.059  -1.640  0.00  0.00    +0.000 A 
ENDBRANCH   1  11
BRANCH   1  17
ATOM     17  C   UNL     1       1.027  -2.361  -4.213  0.00  0.00    +0.000 C 
BRANCH  17  18
ATOM     18  C   UNL     1       0.847  -3.811  -3.764  0.00  0.00    +0.000 C 
BRANCH  18  19
ATOM     19  N   UNL     1       1.594  -4.908  -4.420  0.00  0.00    +0.000 NA
BRANCH  19  21
ATOM     20  C   UNL     1       1.738  -3.614  -6.669  0.00  0.00    +0.000 C 
ATOM     21  C   UNL     1       1.316  -4.898  -5.904  0.00  0.00    +0.000 C 
ATOM     22  C   UNL     1       2.117  -5.950  -6.666  0.00  0.00    +0.000 C 
ENDBRANCH  19  21
BRANCH  19  23
ATOM     23  C   UNL     1       1.156  -6.181  -3.696  0.00  0.00    +0.000 C 
ATOM     24  C   UNL     1       1.939  -7.435  -4.082  0.00  0.00    +0.000 C 
ATOM     25  C   UNL     1       1.307  -6.120  -2.145  0.00  0.00    +0.000 C 
ENDBRANCH  19  23
ENDBRANCH  18  19
ENDBRANCH  17  18
ENDBRANCH   1  17
TORSDOF 8
