REMARK  Name = Tolvaptan
REMARK  6 active torsions:
REMARK  status: ('A' for Active; 'I' for Inactive)
REMARK    1  A    between atoms: C_1  and  C_2
REMARK    2  A    between atoms: C_7  and  C_8
REMARK    3  A    between atoms: N_10  and  C_11
REMARK    4  A    between atoms: C_13  and  C_14
REMARK    5  A    between atoms: C_15  and  C_18
REMARK    6  A    between atoms: C_24  and  O_25
REMARK                            x       y       z     vdW  Elec       q    Type
REMARK                         _______ _______ _______ _____ _____    ______ ____
ROOT
ATOM      1  C   UNL     1       3.223   3.886  -0.003  0.00  0.00    +0.000 A 
ATOM      2  C   UNL     1       2.903   4.948   0.815  0.00  0.00    +0.000 A 
ATOM      3  C   UNL     1       3.564   6.448   0.853  0.00  0.00    +0.000 A 
ATOM      4  C   UNL     1       2.991   7.266   1.896  0.00  0.00    +0.000 C 
ATOM      5  C   UNL     1       4.527   7.263   0.131  0.00  0.00    +0.000 A 
ATOM      6  C   UNL     1       5.000   5.781  -0.657  0.00  0.00    +0.000 A 
ATOM      7  C   UNL     1       4.350   4.192  -0.732  0.00  0.00    +0.000 A 
ENDROOT
BRANCH   5   8
ATOM      8  C   UNL     1       4.894   9.265   0.411  0.00  0.00    +0.000 C 
ATOM      9  O   UNL     1       6.004   8.712  -0.169  0.00  0.00    +0.000 OA
ATOM     10  N   UNL     1       4.825  11.233   0.577  0.00  0.00    +0.000 N 
ATOM     11  C   UNL     1       5.927  10.451   1.004  0.00  0.00    +0.000 C 
ATOM     12  C   UNL     1       5.241  10.699   2.276  0.00  0.00    +0.000 C 
ATOM     13  C   UNL     1       6.276  11.805   2.312  0.00  0.00    +0.000 C 
ATOM     14  C   UNL     1       5.446  12.734   3.143  0.00  0.00    +0.000 C 
ATOM     15  C   UNL     1       5.905  13.632   2.093  0.00  0.00    +0.000 A 
ATOM     16  C   UNL     1       4.819  13.186   1.418  0.00  0.00    +0.000 A 
ATOM     17  C   UNL     1       5.062  14.999   1.872  0.00  0.00    +0.000 A 
ATOM     18  C   UNL     1       6.261  16.266   1.656  0.00  0.00    +0.000 A 
ATOM     19  C   UNL     1       7.067  15.651   0.852  0.00  0.00    +0.000 A 
ATOM     20 CL   UNL     1       7.830  16.225  -0.542  0.00  0.00    +0.000 Cl
ATOM     21  C   UNL     1       6.964  14.285   1.163  0.00  0.00    +0.000 A 
BRANCH  14  22
ATOM     22  O   UNL     1       5.772  12.716   4.469  0.00  0.00    +0.000 OA
ATOM     23  H   UNL     1       6.723  12.767   4.430  0.00  0.00    +0.000 HD
ENDBRANCH  14  22
ENDBRANCH   5   8
BRANCH   1  26
ATOM     24  C   UNL     1       1.065   2.580   0.018  0.00  0.00    +0.000 C 
ATOM     25  O   UNL     1       0.357   3.586  -0.001  0.00  0.00    +0.000 OA
ATOM     26  N   UNL     1       2.475   2.671  -0.010  0.00  0.00    +0.000 N 
ATOM     27  H   UNL     1       3.057   1.864  -0.077  0.00  0.00    +0.000 HD
BRANCH  24  34
ATOM     28  C   UNL     1       2.487  -0.099  -0.011  0.00  0.00    +0.000 C 
ATOM     29  C   UNL     1       1.005  -0.004   0.007  0.00  0.00    +0.000 A 
ATOM     30  C   UNL     1       0.272  -1.201   0.007  0.00  0.00    +0.000 A 
ATOM     31  C   UNL     1      -1.115  -1.193   0.001  0.00  0.00    +0.000 A 
ATOM     32  C   UNL     1      -1.792   0.017  -0.010  0.00  0.00    +0.000 A 
ATOM     33  C   UNL     1      -1.069   1.219   0.003  0.00  0.00    +0.000 A 
ATOM     34  C   UNL     1       0.347   1.234   0.011  0.00  0.00    +0.000 A 
ENDBRANCH  24  34
ENDBRANCH   1  26
TORSDOF 4
