REMARK  Name = Topiramate
REMARK  8 active torsions:
REMARK  status: ('A' for Active; 'I' for Inactive)
REMARK    1  A    between atoms: C_5  and  C_6
REMARK    2  A    between atoms: C_6  and  O_7
REMARK    3  A    between atoms: O_7  and  S_8
REMARK    4  A    between atoms: S_8  and  N_9
REMARK    5  A    between atoms: C_13  and  C_14
REMARK    6  A    between atoms: C_13  and  C_15
REMARK    7  A    between atoms: C_22  and  C_23
REMARK    8  A    between atoms: C_22  and  C_24
REMARK                            x       y       z     vdW  Elec       q    Type
REMARK                         _______ _______ _______ _____ _____    ______ ____
ROOT
ATOM      1  C   UNL     1       2.113  -0.037   0.033  0.00  0.00    +0.000 C 
ATOM      2  C   UNL     1       2.721   0.244  -1.330  0.00  0.00    +0.000 C 
ATOM      3  O   UNL     1       2.936   1.599  -1.626  0.00  0.00    +0.000 OA
ATOM      4  C   UNL     1       3.541   2.486  -0.680  0.00  0.00    +0.000 C 
ATOM      5  O   UNL     1       3.648   3.840  -1.160  0.00  0.00    +0.000 OA
ATOM      6  C   UNL     1       2.369   4.112  -1.622  0.00  0.00    +0.000 C 
ATOM      7  C   UNL     1       2.313   3.513  -3.088  0.00  0.00    +0.000 C 
ATOM      8  C   UNL     1       2.439   5.646  -1.971  0.00  0.00    +0.000 C 
ATOM      9  O   UNL     1       1.540   3.447  -0.496  0.00  0.00    +0.000 OA
ATOM     10  C   UNL     1       2.566   2.601   0.418  0.00  0.00    +0.000 C 
ATOM     11  C   UNL     1       2.509   1.045   1.004  0.00  0.00    +0.000 C 
ATOM     12  O   UNL     1       3.867   0.525   1.374  0.00  0.00    +0.000 OA
ATOM     13  C   UNL     1       3.859  -0.931   1.216  0.00  0.00    +0.000 C 
ATOM     14  C   UNL     1       3.994  -1.525   2.610  0.00  0.00    +0.000 C 
ATOM     15  C   UNL     1       5.049  -1.589   0.479  0.00  0.00    +0.000 C 
ATOM     16  O   UNL     1       2.644  -1.280   0.559  0.00  0.00    +0.000 OA
ENDROOT
BRANCH   4  17
ATOM     17  C   UNL     1       4.987   2.308  -0.487  0.00  0.00    +0.000 C 
BRANCH  17  18
ATOM     18  O   UNL     1       5.453   0.999  -0.427  0.00  0.00    +0.000 OA
BRANCH  18  19
ATOM     19  S   UNL     1       7.042   0.893  -0.199  0.00  0.00    +0.000 S 
ATOM     20  O   UNL     1       7.406   1.834   0.813  0.00  0.00    +0.000 OA
ATOM     21  O   UNL     1       7.455  -0.498  -0.186  0.00  0.00    +0.000 OA
BRANCH  19  22
ATOM     22  N   UNL     1       7.513   1.408  -1.709  0.00  0.00    +0.000 NA
ATOM     23  H   UNL     1       7.221   2.366  -1.876  0.00  0.00    +0.000 HD
ATOM     24  H   UNL     1       7.065   0.751  -2.352  0.00  0.00    +0.000 HD
ENDBRANCH  19  22
ENDBRANCH  18  19
ENDBRANCH  17  18
ENDBRANCH   4  17
TORSDOF 4
