REMARK  Name = Topotecan
REMARK  8 active torsions:
REMARK  status: ('A' for Active; 'I' for Inactive)
REMARK    1  A    between atoms: C_1  and  C_2
REMARK    2  A    between atoms: C_2  and  C_3
REMARK    3  A    between atoms: C_3  and  O_4
REMARK    4  A    between atoms: C_21  and  O_22
REMARK    5  A    between atoms: C_23  and  C_24
REMARK    6  A    between atoms: C_24  and  N_25
REMARK    7  A    between atoms: N_25  and  C_26
REMARK    8  A    between atoms: N_25  and  C_27
REMARK                            x       y       z     vdW  Elec       q    Type
REMARK                         _______ _______ _______ _____ _____    ______ ____
ROOT
ATOM      1  C   UNL     1       4.041   1.509  -2.242  0.00  0.00    +0.000 C 
ATOM      2  C   UNL     1       5.079   1.110  -1.074  0.00  0.00    +0.000 C 
ATOM      3  O   UNL     1       5.337  -0.010  -0.632  0.00  0.00    +0.000 OA
ATOM      4  O   UNL     1       5.795   2.144  -0.620  0.00  0.00    +0.000 OA
ATOM      5  C   UNL     1       6.925   1.998  -1.422  0.00  0.00    +0.000 C 
ATOM      6  C   UNL     1       6.533   2.676  -2.637  0.00  0.00    +0.000 A 
ATOM      7  C   UNL     1       5.499   2.146  -3.341  0.00  0.00    +0.000 A 
ATOM      8  C   UNL     1       6.165   2.752  -4.869  0.00  0.00    +0.000 A 
ATOM      9  C   UNL     1       6.770   4.034  -5.066  0.00  0.00    +0.000 A 
ATOM     10  N   UNL     1       6.734   4.769  -3.894  0.00  0.00    +0.000 N 
ATOM     11  C   UNL     1       6.787   6.208  -4.114  0.00  0.00    +0.000 C 
ATOM     12  C   UNL     1       7.225   6.334  -5.528  0.00  0.00    +0.000 A 
ATOM     13  C   UNL     1       7.176   7.512  -6.279  0.00  0.00    +0.000 A 
ATOM     14  C   UNL     1       7.831   7.717  -7.502  0.00  0.00    +0.000 A 
ATOM     15  C   UNL     1       8.332   6.505  -8.033  0.00  0.00    +0.000 A 
ATOM     16  C   UNL     1       8.965   6.743  -9.298  0.00  0.00    +0.000 A 
ATOM     17  C   UNL     1       9.062   7.998  -9.994  0.00  0.00    +0.000 A 
ATOM     18  C   UNL     1       8.577   9.152  -9.410  0.00  0.00    +0.000 A 
ATOM     19  C   UNL     1       7.991   9.059  -8.142  0.00  0.00    +0.000 A 
ATOM     20  N   UNL     1       8.122   5.199  -7.358  0.00  0.00    +0.000 NA
ATOM     21  C   UNL     1       7.540   5.131  -6.105  0.00  0.00    +0.000 A 
ATOM     22  C   UNL     1       6.550   4.200  -2.640  0.00  0.00    +0.000 A 
ATOM     23  O   UNL     1       6.415   4.820  -1.643  0.00  0.00    +0.000 OA
ENDROOT
BRANCH   1  25
ATOM     24  C   UNL     1       1.419   0.309  -0.645  0.00  0.00    +0.000 C 
ATOM     25  C   UNL     1       2.986   0.375  -1.120  0.00  0.00    +0.000 C 
ENDBRANCH   1  25
BRANCH   1  26
ATOM     26  O   UNL     1       3.279   2.709  -1.972  0.00  0.00    +0.000 OA
ATOM     27  H   UNL     1       2.672   2.507  -1.230  0.00  0.00    +0.000 HD
ENDBRANCH   1  26
BRANCH  18  28
ATOM     28  O   UNL     1       8.664  10.368 -10.038  0.00  0.00    +0.000 OA
ATOM     29  H   UNL     1       9.041  10.280 -10.931  0.00  0.00    +0.000 HD
ENDBRANCH  18  28
BRANCH  19  30
ATOM     30  C   UNL     1       7.597  10.414  -7.493  0.00  0.00    +0.000 C 
BRANCH  30  31
ATOM     31  N   UNL     1       7.223  10.345  -6.078  0.00  0.00    +0.000 NA
ATOM     32  C   UNL     1       8.337   9.958  -5.209  0.00  0.00    +0.000 C 
ATOM     33  C   UNL     1       6.578  11.542  -5.566  0.00  0.00    +0.000 C 
ENDBRANCH  30  31
ENDBRANCH  19  30
TORSDOF 5
