REMARK  Name = Torasemide
REMARK  8 active torsions:
REMARK  status: ('A' for Active; 'I' for Inactive)
REMARK    1  A    between atoms: C_1  and  C_2
REMARK    2  A    between atoms: C_2  and  C_3
REMARK    3  A    between atoms: C_2  and  N_4
REMARK    4  A    between atoms: N_7  and  S_8
REMARK    5  A    between atoms: S_8  and  C_11
REMARK    6  A    between atoms: C_12  and  N_13
REMARK    7  A    between atoms: N_13  and  C_14
REMARK    8  A    between atoms: C_18  and  C_19
REMARK                            x       y       z     vdW  Elec       q    Type
REMARK                         _______ _______ _______ _____ _____    ______ ____
ROOT
ATOM      1  C   UNL     1       6.815   4.566   2.191  0.00  0.00    +0.000 A 
ATOM      2  C   UNL     1       6.620   5.705   1.367  0.00  0.00    +0.000 A 
ATOM      3  C   UNL     1       6.728   6.972   2.008  0.00  0.00    +0.000 A 
ATOM      4  C   UNL     1       7.070   7.062   3.352  0.00  0.00    +0.000 A 
ATOM      5  N   UNL     1       7.341   5.992   4.110  0.00  0.00    +0.000 NA
ATOM      6  C   UNL     1       7.227   4.783   3.510  0.00  0.00    +0.000 A 
ENDROOT
BRANCH   1   7
ATOM      7  S   UNL     1       6.723   2.813   1.764  0.00  0.00    +0.000 S 
ATOM      8  O   UNL     1       7.216   2.079   2.921  0.00  0.00    +0.000 OA
ATOM      9  O   UNL     1       7.427   2.650   0.525  0.00  0.00    +0.000 OA
BRANCH   7  13
ATOM     10  N   UNL     1       3.151   1.239   0.773  0.00  0.00    +0.000 N 
ATOM     11  C   UNL     1       4.516   1.271   1.116  0.00  0.00    +0.000 C 
ATOM     12  O   UNL     1       5.238   0.322   0.854  0.00  0.00    +0.000 OA
ATOM     13  N   UNL     1       5.031   2.470   1.675  0.00  0.00    +0.000 N 
ATOM     14  H   UNL     1       2.565   2.046   0.932  0.00  0.00    +0.000 HD
ATOM     15  H   UNL     1       4.431   3.261   1.862  0.00  0.00    +0.000 HD
BRANCH  10  17
ATOM     16  C   UNL     1       1.022   0.109   0.003  0.00  0.00    +0.000 C 
ATOM     17  C   UNL     1       2.557   0.087   0.024  0.00  0.00    +0.000 C 
ATOM     18  C   UNL     1       3.011  -0.056  -1.443  0.00  0.00    +0.000 C 
ENDBRANCH  10  17
ENDBRANCH   7  13
ENDBRANCH   1   7
BRANCH   2  19
ATOM     19  N   UNL     1       6.299   5.757  -0.019  0.00  0.00    +0.000 N 
ATOM     20  H   UNL     1       6.343   6.669  -0.464  0.00  0.00    +0.000 HD
BRANCH  19  21
ATOM     21  C   UNL     1       6.158   4.703  -0.932  0.00  0.00    +0.000 A 
ATOM     22  C   UNL     1       5.050   3.890  -0.811  0.00  0.00    +0.000 A 
ATOM     23  C   UNL     1       5.045   2.643  -1.420  0.00  0.00    +0.000 A 
ATOM     24  C   UNL     1       6.102   2.185  -2.172  0.00  0.00    +0.000 A 
ATOM     25  C   UNL     1       7.096   3.086  -2.509  0.00  0.00    +0.000 A 
ATOM     26  C   UNL     1       8.112   2.643  -3.507  0.00  0.00    +0.000 C 
ATOM     27  C   UNL     1       7.120   4.362  -1.895  0.00  0.00    +0.000 A 
ENDBRANCH  19  21
ENDBRANCH   2  19
TORSDOF 5
