REMARK  Name = Toremifene
REMARK  11 active torsions:
REMARK  status: ('A' for Active; 'I' for Inactive)
REMARK    1  A    between atoms: C_1  and  N_2
REMARK    2  A    between atoms: N_2  and  C_3
REMARK    3  A    between atoms: N_2  and  C_4
REMARK    4  A    between atoms: C_4  and  C_5
REMARK    5  A    between atoms: C_5  and  O_6
REMARK    6  A    between atoms: O_6  and  C_7
REMARK    7  A    between atoms: C_10  and  C_13
REMARK    8  A    between atoms: C_13  and  C_24
REMARK    9  A    between atoms: C_14  and  C_15
REMARK   10  A    between atoms: C_14  and  C_18
REMARK   11  A    between atoms: C_15  and  C_16
REMARK                            x       y       z     vdW  Elec       q    Type
REMARK                         _______ _______ _______ _____ _____    ______ ____
ROOT
ATOM      1  C   UNL     1      10.397  -3.096   2.305  0.00  0.00    +0.000 C 
ATOM      2  C   UNL     1      11.015  -4.336   2.194  0.00  0.00    +0.000 C 
ENDROOT
BRANCH   1   6
ATOM      3  C   UNL     1       6.164  -2.435   1.636  0.00  0.00    +0.000 A 
ATOM      4  C   UNL     1       6.652  -3.704   1.761  0.00  0.00    +0.000 A 
ATOM      5  C   UNL     1       7.936  -3.893   2.245  0.00  0.00    +0.000 A 
ATOM      6  C   UNL     1       8.888  -2.867   2.228  0.00  0.00    +0.000 A 
ATOM      7  C   UNL     1       8.361  -1.576   2.133  0.00  0.00    +0.000 A 
ATOM      8  C   UNL     1       7.002  -1.350   1.903  0.00  0.00    +0.000 A 
BRANCH   3   9
ATOM      9  O   UNL     1       4.833  -2.381   1.371  0.00  0.00    +0.000 OA
BRANCH   9  10
ATOM     10  C   UNL     1       4.431  -1.214   0.679  0.00  0.00    +0.000 C 
BRANCH  10  11
ATOM     11  C   UNL     1       2.909  -1.165   0.692  0.00  0.00    +0.000 C 
BRANCH  11  13
ATOM     12  C   UNL     1       0.931  -0.053  -0.067  0.00  0.00    +0.000 C 
ATOM     13  N   UNL     1       2.391  -0.012  -0.060  0.00  0.00    +0.000 NA
ATOM     14  C   UNL     1       2.850   1.257   0.510  0.00  0.00    +0.000 C 
ENDBRANCH  11  13
ENDBRANCH  10  11
ENDBRANCH   9  10
ENDBRANCH   3   9
ENDBRANCH   1   6
BRANCH   2  15
ATOM     15  C   UNL     1      10.285  -5.615   1.808  0.00  0.00    +0.000 A 
ATOM     16  C   UNL     1      10.346  -6.780   2.597  0.00  0.00    +0.000 A 
ATOM     17  C   UNL     1       9.566  -7.906   2.293  0.00  0.00    +0.000 A 
ATOM     18  C   UNL     1       8.622  -7.846   1.272  0.00  0.00    +0.000 A 
ATOM     19  C   UNL     1       8.553  -6.712   0.473  0.00  0.00    +0.000 A 
ATOM     20  C   UNL     1       9.448  -5.651   0.675  0.00  0.00    +0.000 A 
ENDBRANCH   2  15
BRANCH   1  21
ATOM     21  C   UNL     1      11.244  -1.855   2.504  0.00  0.00    +0.000 A 
ATOM     22  C   UNL     1      12.156  -1.394   1.538  0.00  0.00    +0.000 A 
ATOM     23  C   UNL     1      13.160  -0.485   1.911  0.00  0.00    +0.000 A 
ATOM     24  C   UNL     1      13.107   0.150   3.149  0.00  0.00    +0.000 A 
ATOM     25  C   UNL     1      12.062  -0.136   4.023  0.00  0.00    +0.000 A 
ATOM     26  C   UNL     1      11.161  -1.158   3.719  0.00  0.00    +0.000 A 
ENDBRANCH   1  21
BRANCH   2  27
ATOM     27  C   UNL     1      12.514  -4.710   2.421  0.00  0.00    +0.000 C 
BRANCH  27  28
ATOM     28  C   UNL     1      13.524  -3.617   2.714  0.00  0.00    +0.000 C 
ATOM     29 CL   UNL     1      15.178  -4.154   3.053  0.00  0.00    +0.000 Cl
ENDBRANCH  27  28
ENDBRANCH   2  27
TORSDOF 9
