REMARK  Name = Tramadol
REMARK  8 active torsions:
REMARK  status: ('A' for Active; 'I' for Inactive)
REMARK    1  A    between atoms: C_1  and  O_2
REMARK    2  A    between atoms: O_2  and  C_3
REMARK    3  A    between atoms: C_7  and  C_9
REMARK    4  A    between atoms: C_9  and  O_10
REMARK    5  A    between atoms: C_15  and  C_16
REMARK    6  A    between atoms: C_16  and  N_17
REMARK    7  A    between atoms: N_17  and  C_18
REMARK    8  A    between atoms: N_17  and  C_19
REMARK                            x       y       z     vdW  Elec       q    Type
REMARK                         _______ _______ _______ _____ _____    ______ ____
ROOT
ATOM      1  C   UNL     1       3.195   1.168  -4.509  0.00  0.00    +0.000 C 
ATOM      2  C   UNL     1       4.070   1.116  -5.778  0.00  0.00    +0.000 C 
ATOM      3  C   UNL     1       4.029  -0.232  -6.484  0.00  0.00    +0.000 C 
ATOM      4  C   UNL     1       2.613  -0.742  -6.724  0.00  0.00    +0.000 C 
ATOM      5  C   UNL     1       1.690  -0.578  -5.511  0.00  0.00    +0.000 C 
ATOM      6  C   UNL     1       1.699   0.880  -4.939  0.00  0.00    +0.000 C 
ENDROOT
BRANCH   1  11
ATOM      7  C   UNL     1       3.047  -0.379  -1.036  0.00  0.00    +0.000 A 
ATOM      8  C   UNL     1       4.193  -1.157  -1.052  0.00  0.00    +0.000 A 
ATOM      9  C   UNL     1       5.037  -1.196  -2.162  0.00  0.00    +0.000 A 
ATOM     10  C   UNL     1       4.716  -0.459  -3.297  0.00  0.00    +0.000 A 
ATOM     11  C   UNL     1       3.543   0.273  -3.335  0.00  0.00    +0.000 A 
ATOM     12  C   UNL     1       2.721   0.341  -2.182  0.00  0.00    +0.000 A 
BRANCH   7  14
ATOM     13  C   UNL     1       0.963  -0.117   0.048  0.00  0.00    +0.000 C 
ATOM     14  O   UNL     1       2.376  -0.271   0.146  0.00  0.00    +0.000 OA
ENDBRANCH   7  14
ENDBRANCH   1  11
BRANCH   1  15
ATOM     15  O   UNL     1       3.491   2.383  -3.830  0.00  0.00    +0.000 OA
ATOM     16  H   UNL     1       4.285   2.801  -4.194  0.00  0.00    +0.000 HD
ENDBRANCH   1  15
BRANCH   6  17
ATOM     17  C   UNL     1       1.018   1.829  -5.980  0.00  0.00    +0.000 C 
BRANCH  17  18
ATOM     18  N   UNL     1       0.754   3.225  -5.589  0.00  0.00    +0.000 NA
ATOM     19  C   UNL     1       1.944   3.942  -5.177  0.00  0.00    +0.000 C 
ATOM     20  C   UNL     1       0.136   3.987  -6.664  0.00  0.00    +0.000 C 
ENDBRANCH  17  18
ENDBRANCH   6  17
TORSDOF 5
