REMARK  Name = Trametinib
REMARK  8 active torsions:
REMARK  status: ('A' for Active; 'I' for Inactive)
REMARK    1  A    between atoms: C_1  and  N_2
REMARK    2  A    between atoms: C_5  and  C_6
REMARK    3  A    between atoms: N_8  and  C_28
REMARK    4  A    between atoms: N_11  and  C_12
REMARK    5  A    between atoms: C_18  and  N_19
REMARK    6  A    between atoms: N_19  and  C_20
REMARK    7  A    between atoms: C_30  and  N_31
REMARK    8  A    between atoms: C_32  and  C_33
REMARK                            x       y       z     vdW  Elec       q    Type
REMARK                         _______ _______ _______ _____ _____    ______ ____
ROOT
ATOM      1  C   UNL     1       1.001  -0.160  -0.099  0.00  0.00    +0.000 C 
ATOM      2  N   UNL     1       2.436   0.009  -0.025  0.00  0.00    +0.000 N 
ATOM      3  C   UNL     1       3.081  -1.206   0.032  0.00  0.00    +0.000 A 
ATOM      4  O   UNL     1       2.492  -2.273   0.017  0.00  0.00    +0.000 OA
ATOM      5  C   UNL     1       4.559  -1.187   0.095  0.00  0.00    +0.000 A 
ATOM      6  C   UNL     1       5.063  -2.602   0.185  0.00  0.00    +0.000 C 
ATOM      7  C   UNL     1       5.233  -0.008   0.039  0.00  0.00    +0.000 A 
ATOM      8  N   UNL     1       6.644   0.099   0.050  0.00  0.00    +0.000 N 
ATOM      9  C   UNL     1       7.360   1.303   0.003  0.00  0.00    +0.000 A 
ATOM     10  O   UNL     1       8.595   1.279  -0.025  0.00  0.00    +0.000 OA
ATOM     11  N   UNL     1       6.636   2.490  -0.032  0.00  0.00    +0.000 N 
ATOM     12  C   UNL     1       5.236   2.539  -0.009  0.00  0.00    +0.000 A 
ATOM     13  O   UNL     1       4.623   3.613   0.004  0.00  0.00    +0.000 OA
ATOM     14  C   UNL     1       4.462   1.243   0.014  0.00  0.00    +0.000 A 
ATOM     15  C   UNL     1       3.080   1.265   0.031  0.00  0.00    +0.000 A 
ENDROOT
BRANCH   8  16
ATOM     16  C   UNL     1       7.503  -1.048  -0.031  0.00  0.00    +0.000 A 
ATOM     17  C   UNL     1       8.330  -1.432   1.057  0.00  0.00    +0.000 A 
ATOM     18  C   UNL     1       8.975  -2.674   1.023  0.00  0.00    +0.000 A 
ATOM     19  C   UNL     1       8.693  -3.483  -0.068  0.00  0.00    +0.000 A 
ATOM     20  C   UNL     1       7.987  -3.076  -1.182  0.00  0.00    +0.000 A 
ATOM     21  C   UNL     1       7.438  -1.821  -1.195  0.00  0.00    +0.000 A 
BRANCH  18  22
ATOM     22  N   UNL     1       9.830  -3.079   2.070  0.00  0.00    +0.000 N 
ATOM     23  C   UNL     1      10.618  -4.185   2.249  0.00  0.00    +0.000 C 
ATOM     24  C   UNL     1      10.710  -5.372   1.313  0.00  0.00    +0.000 C 
ATOM     25  O   UNL     1      11.318  -4.220   3.271  0.00  0.00    +0.000 OA
ATOM     26  H   UNL     1       9.972  -2.415   2.829  0.00  0.00    +0.000 HD
ENDBRANCH  18  22
ENDBRANCH   8  16
BRANCH  11  27
ATOM     27  C   UNL     1       7.326   3.792   0.139  0.00  0.00    +0.000 C 
ATOM     28  C   UNL     1       8.756   3.916   0.634  0.00  0.00    +0.000 C 
ATOM     29  C   UNL     1       8.366   4.493  -0.694  0.00  0.00    +0.000 C 
ENDBRANCH  11  27
BRANCH  15  30
ATOM     30  N   UNL     1       2.352   2.480   0.059  0.00  0.00    +0.000 N 
ATOM     31  H   UNL     1       2.918   3.331  -0.034  0.00  0.00    +0.000 HD
BRANCH  30  32
ATOM     32  C   UNL     1       0.958   2.704   0.136  0.00  0.00    +0.000 A 
ATOM     33  C   UNL     1       0.276   3.241  -0.967  0.00  0.00    +0.000 A 
ATOM     34  C   UNL     1      -1.127   3.209  -1.026  0.00  0.00    +0.000 A 
ATOM     35  C   UNL     1      -1.860   2.628   0.011  0.00  0.00    +0.000 A 
ATOM     36  I   UNL     1      -3.931   2.503  -0.118  0.00  0.00    +0.000 I 
ATOM     37  C   UNL     1      -1.206   2.139   1.135  0.00  0.00    +0.000 A 
ATOM     38  C   UNL     1       0.183   2.260   1.223  0.00  0.00    +0.000 A 
ATOM     39  F   UNL     1       0.791   1.747   2.306  0.00  0.00    +0.000 F 
ENDBRANCH  30  32
ENDBRANCH  15  30
TORSDOF 5
