REMARK  Name = Tranylcypromine
REMARK  2 active torsions:
REMARK  status: ('A' for Active; 'I' for Inactive)
REMARK    1  A    between atoms: N_1  and  C_2
REMARK    2  A    between atoms: C_4  and  C_5
REMARK                            x       y       z     vdW  Elec       q    Type
REMARK                         _______ _______ _______ _____ _____    ______ ____
ROOT
ATOM      1  C   UNL     1       2.336  -0.005  -0.089  0.00  0.00    +0.000 C 
ATOM      2  C   UNL     1       3.046  -0.748  -1.184  0.00  0.00    +0.000 C 
ATOM      3  C   UNL     1       3.119   0.761  -1.129  0.00  0.00    +0.000 C 
ENDROOT
BRANCH   3   4
ATOM      4  C   UNL     1       4.414   1.472  -0.771  0.00  0.00    +0.000 A 
ATOM      5  C   UNL     1       4.559   2.847  -1.039  0.00  0.00    +0.000 A 
ATOM      6  C   UNL     1       5.783   3.503  -0.863  0.00  0.00    +0.000 A 
ATOM      7  C   UNL     1       6.876   2.814  -0.353  0.00  0.00    +0.000 A 
ATOM      8  C   UNL     1       6.749   1.469  -0.024  0.00  0.00    +0.000 A 
ATOM      9  C   UNL     1       5.533   0.814  -0.232  0.00  0.00    +0.000 A 
ENDBRANCH   3   4
BRANCH   1  10
ATOM     10  N   UNL     1       0.872   0.022  -0.105  0.00  0.00    +0.000 NA
ATOM     11  H   UNL     1       0.497  -0.549   0.652  0.00  0.00    +0.000 HD
ATOM     12  H   UNL     1       0.507  -0.391  -0.963  0.00  0.00    +0.000 HD
ENDBRANCH   1  10
TORSDOF 2
