REMARK  Name = Tranexamic acid
REMARK  4 active torsions:
REMARK  status: ('A' for Active; 'I' for Inactive)
REMARK    1  A    between atoms: N_1  and  C_2
REMARK    2  A    between atoms: C_2  and  C_3
REMARK    3  A    between atoms: C_6  and  C_9
REMARK    4  A    between atoms: C_9  and  O_10
REMARK                            x       y       z     vdW  Elec       q    Type
REMARK                         _______ _______ _______ _____ _____    ______ ____
ROOT
ATOM      1  C   UNL     1       2.948   1.087   1.100  0.00  0.00    +0.000 C 
ATOM      2  C   UNL     1       2.040   0.898   2.339  0.00  0.00    +0.000 C 
ATOM      3  C   UNL     1       2.124   2.042   3.378  0.00  0.00    +0.000 C 
ATOM      4  C   UNL     1       1.955   3.422   2.718  0.00  0.00    +0.000 C 
ATOM      5  C   UNL     1       2.906   3.592   1.518  0.00  0.00    +0.000 C 
ATOM      6  C   UNL     1       2.716   2.479   0.491  0.00  0.00    +0.000 C 
ENDROOT
BRANCH   4   7
ATOM      7  C   UNL     1       0.475   3.575   2.394  0.00  0.00    +0.000 C 
ATOM      8  O   UNL     1      -0.416   3.007   3.027  0.00  0.00    +0.000 OA
BRANCH   7   9
ATOM      9  O   UNL     1       0.164   4.399   1.380  0.00  0.00    +0.000 OA
ATOM     10  H   UNL     1       0.912   4.821   0.925  0.00  0.00    +0.000 HD
ENDBRANCH   7   9
ENDBRANCH   4   7
BRANCH   1  11
ATOM     11  C   UNL     1       4.445   0.831   1.402  0.00  0.00    +0.000 C 
BRANCH  11  12
ATOM     12  N   UNL     1       4.816   1.369   2.698  0.00  0.00    +0.000 NA
ATOM     13  H   UNL     1       5.807   1.365   2.894  0.00  0.00    +0.000 HD
ATOM     14  H   UNL     1       4.375   0.782   3.408  0.00  0.00    +0.000 HD
ENDBRANCH  11  12
ENDBRANCH   1  11
TORSDOF 4
