REMARK  Name = Trandolapril
REMARK  13 active torsions:
REMARK  status: ('A' for Active; 'I' for Inactive)
REMARK    1  A    between atoms: CA_4  and  C_31
REMARK    2  A    between atoms: C_6  and  CA_8
REMARK    3  A    between atoms: CA_8  and  CB_9
REMARK    4  A    between atoms: CA_8  and  N_10
REMARK    5  A    between atoms: N_10  and  C_11
REMARK    6  A    between atoms: C_11  and  C_12
REMARK    7  A    between atoms: C_11  and  C_20
REMARK    8  A    between atoms: C_12  and  C_13
REMARK    9  A    between atoms: C_13  and  C_14
REMARK   10  A    between atoms: C_20  and  O_22
REMARK   11  A    between atoms: O_22  and  C_23
REMARK   12  A    between atoms: C_23  and  C_24
REMARK   13  A    between atoms: C_31  and  O_32
REMARK                            x       y       z     vdW  Elec       q    Type
REMARK                         _______ _______ _______ _____ _____    ______ ____
ROOT
ATOM      1  CA  ALA A   1       2.907  -1.428   4.630  0.00  0.00    +0.000 C 
ATOM      2  CB  ALA A   1       3.509  -1.870   3.319  0.00  0.00    +0.000 C 
ENDROOT
BRANCH   1   7
ATOM      3  C   ALA A   1      -1.684  -2.478   3.379  0.00  0.00    +0.000 C 
ATOM      4  C   ALA A   1      -0.867  -3.745   3.579  0.00  0.00    +0.000 C 
ATOM      5  CA  ALA A   1       0.551  -3.193   3.689  0.00  0.00    +0.000 C 
ATOM      6  N   ALA A   1       0.414  -1.776   4.044  0.00  0.00    +0.000 N 
ATOM      7  C   ALA A   1       1.476  -0.891   4.171  0.00  0.00    +0.000 C 
ATOM      8  O   ALA A   1       1.327   0.301   3.885  0.00  0.00    +0.000 OA
ATOM      9  C   ALA A   1      -0.989  -1.496   4.310  0.00  0.00    +0.000 C 
ATOM     10  C   ALA A   1      -1.579  -0.119   4.094  0.00  0.00    +0.000 C 
ATOM     11  C   ALA A   1      -3.071  -0.167   4.444  0.00  0.00    +0.000 C 
ATOM     12  C   ALA A   1      -3.859  -1.273   3.747  0.00  0.00    +0.000 C 
ATOM     13  C   ALA A   1      -3.146  -2.625   3.718  0.00  0.00    +0.000 C 
BRANCH   5  14
ATOM     14  C   ALA A   1       1.123  -3.349   2.268  0.00  0.00    +0.000 C 
ATOM     15  OXT ALA A   1       1.555  -4.382   1.839  0.00  0.00    +0.000 OA
BRANCH  14  16
ATOM     16  O   ALA A   1       1.155  -2.181   1.548  0.00  0.00    +0.000 OA
ATOM     17  H   ALA A   1       0.958  -1.378   2.078  0.00  0.00    +0.000 HD
ENDBRANCH  14  16
ENDBRANCH   5  14
ENDBRANCH   1   7
BRANCH   1  18
ATOM     18  N   ALA A   1       2.792  -2.568   5.576  0.00  0.00    +0.000 NA
ATOM     19  H   ALA A   1       3.545  -3.242   5.415  0.00  0.00    +0.000 HD
BRANCH  18  20
ATOM     20  C   UNK A   0       2.721  -2.278   7.040  0.00  0.00    +0.000 C 
BRANCH  20  21
ATOM     21  C   UNK A   0       2.695  -3.612   7.831  0.00  0.00    +0.000 C 
ATOM     22  O   UNK A   0       2.717  -4.735   7.338  0.00  0.00    +0.000 OA
BRANCH  21  23
ATOM     23  O   UNK A   0       2.651  -3.355   9.174  0.00  0.00    +0.000 OA
BRANCH  23  24
ATOM     24  C   UNK A   0       2.589  -4.512  10.014  0.00  0.00    +0.000 C 
ATOM     25  C   UNK A   0       2.528  -4.059  11.462  0.00  0.00    +0.000 C 
ENDBRANCH  23  24
ENDBRANCH  21  23
ENDBRANCH  20  21
BRANCH  20  26
ATOM     26  C   UNK A   0       1.467  -1.521   7.501  0.00  0.00    +0.000 C 
BRANCH  26  27
ATOM     27  C   UNK A   0       1.427  -0.104   6.987  0.00  0.00    +0.000 C 
BRANCH  27  28
ATOM     28  C   UNK A   0       0.165   0.671   7.088  0.00  0.00    +0.000 A 
ATOM     29  C   UNK A   0       0.157   2.018   6.719  0.00  0.00    +0.000 A 
ATOM     30  C   UNK A   0      -1.001   2.761   6.900  0.00  0.00    +0.000 A 
ATOM     31  C   UNK A   0      -2.186   2.127   7.272  0.00  0.00    +0.000 A 
ATOM     32  C   UNK A   0      -2.218   0.753   7.457  0.00  0.00    +0.000 A 
ATOM     33  C   UNK A   0      -1.047   0.027   7.349  0.00  0.00    +0.000 A 
ENDBRANCH  27  28
ENDBRANCH  26  27
ENDBRANCH  20  26
ENDBRANCH  18  20
ENDBRANCH   1  18
TORSDOF 11
