REMARK  Name = Trazodone
REMARK  5 active torsions:
REMARK  status: ('A' for Active; 'I' for Inactive)
REMARK    1  A    between atoms: C_6  and  N_8
REMARK    2  A    between atoms: N_11  and  C_12
REMARK    3  A    between atoms: C_12  and  C_13
REMARK    4  A    between atoms: C_13  and  C_14
REMARK    5  A    between atoms: C_14  and  N_15
REMARK                            x       y       z     vdW  Elec       q    Type
REMARK                         _______ _______ _______ _____ _____    ______ ____
ROOT
ATOM      1  N   UNL     1       2.381   2.475   0.013  0.00  0.00    +0.000 N 
ATOM      2  C   UNL     1       3.543   2.885  -0.788  0.00  0.00    +0.000 C 
ATOM      3  C   UNL     1       3.341   4.373  -1.227  0.00  0.00    +0.000 C 
ATOM      4  N   UNL     1       3.051   5.311  -0.102  0.00  0.00    +0.000 NA
ATOM      5  C   UNL     1       1.871   4.777   0.632  0.00  0.00    +0.000 C 
ATOM      6  C   UNL     1       2.081   3.343   1.156  0.00  0.00    +0.000 C 
ENDROOT
BRANCH   1  12
ATOM      7 CL   UNL     1      -2.068   0.001  -0.004  0.00  0.00    +0.000 Cl
ATOM      8  C   UNL     1      -0.347   0.001  -0.021  0.00  0.00    +0.000 A 
ATOM      9  C   UNL     1       0.349  -1.200  -0.024  0.00  0.00    +0.000 A 
ATOM     10  C   UNL     1       1.744  -1.180  -0.025  0.00  0.00    +0.000 A 
ATOM     11  C   UNL     1       2.438   0.039  -0.040  0.00  0.00    +0.000 A 
ATOM     12  C   UNL     1       1.751   1.254  -0.034  0.00  0.00    +0.000 A 
ATOM     13  C   UNL     1       0.345   1.210  -0.025  0.00  0.00    +0.000 A 
ENDBRANCH   1  12
BRANCH   4  14
ATOM     14  C   UNL     1       4.232   5.428   0.771  0.00  0.00    +0.000 C 
BRANCH  14  15
ATOM     15  C   UNL     1       3.979   6.340   1.967  0.00  0.00    +0.000 C 
BRANCH  15  16
ATOM     16  C   UNL     1       5.193   6.369   2.876  0.00  0.00    +0.000 C 
BRANCH  16  17
ATOM     17  N   UNL     1       4.977   7.256   3.985  0.00  0.00    +0.000 N 
ATOM     18  N   UNL     1       4.633   6.840   5.258  0.00  0.00    +0.000 NA
ATOM     19  C   UNL     1       4.612   7.949   5.936  0.00  0.00    +0.000 A 
ATOM     20  C   UNL     1       4.340   8.132   7.379  0.00  0.00    +0.000 A 
ATOM     21  C   UNL     1       4.416   9.378   7.878  0.00  0.00    +0.000 A 
ATOM     22  C   UNL     1       4.738  10.515   7.034  0.00  0.00    +0.000 A 
ATOM     23  C   UNL     1       4.966  10.332   5.726  0.00  0.00    +0.000 A 
ATOM     24  N   UNL     1       4.894   9.068   5.215  0.00  0.00    +0.000 N 
ATOM     25  C   UNL     1       5.122   8.647   3.933  0.00  0.00    +0.000 A 
ATOM     26  O   UNL     1       5.411   9.321   2.951  0.00  0.00    +0.000 OA
ENDBRANCH  16  17
ENDBRANCH  15  16
ENDBRANCH  14  15
ENDBRANCH   4  14
TORSDOF 5
