REMARK  Name = Treosulfan
REMARK  11 active torsions:
REMARK  status: ('A' for Active; 'I' for Inactive)
REMARK    1  A    between atoms: C_1  and  S_2
REMARK    2  A    between atoms: S_2  and  O_5
REMARK    3  A    between atoms: O_5  and  C_6
REMARK    4  A    between atoms: C_6  and  C_7
REMARK    5  A    between atoms: C_7  and  O_8
REMARK    6  A    between atoms: C_7  and  C_9
REMARK    7  A    between atoms: C_9  and  O_10
REMARK    8  A    between atoms: C_9  and  C_11
REMARK    9  A    between atoms: C_11  and  O_12
REMARK   10  A    between atoms: O_12  and  S_13
REMARK   11  A    between atoms: S_13  and  C_14
REMARK                            x       y       z     vdW  Elec       q    Type
REMARK                         _______ _______ _______ _____ _____    ______ ____
ROOT
ATOM      1  C   UNL     1       5.233  -3.031   0.017  0.00  0.00    +0.000 C 
ENDROOT
BRANCH   1   2
ATOM      2  O   UNL     1       4.725  -1.689   0.003  0.00  0.00    +0.000 OA
ATOM      3  H   UNL     1       5.125  -1.210  -0.744  0.00  0.00    +0.000 HD
ENDBRANCH   1   2
BRANCH   1   4
ATOM      4  C   UNL     1       4.658  -3.786  -1.193  0.00  0.00    +0.000 C 
BRANCH   4   5
ATOM      5  O   UNL     1       4.890  -5.199  -1.158  0.00  0.00    +0.000 OA
BRANCH   5   7
ATOM      6  C   UNL     1       5.143  -7.631  -2.169  0.00  0.00    +0.000 C 
ATOM      7  S   UNL     1       4.605  -5.976  -2.572  0.00  0.00    +0.000 S 
ATOM      8  O   UNL     1       5.506  -5.427  -3.562  0.00  0.00    +0.000 OA
ATOM      9  O   UNL     1       3.171  -5.988  -2.766  0.00  0.00    +0.000 OA
ENDBRANCH   5   7
ENDBRANCH   4   5
ENDBRANCH   1   4
BRANCH   1  10
ATOM     10  C   UNL     1       6.788  -3.025   0.055  0.00  0.00    +0.000 C 
BRANCH  10  11
ATOM     11  O   UNL     1       7.253  -2.292   1.196  0.00  0.00    +0.000 OA
ATOM     12  H   UNL     1       6.864  -2.677   1.999  0.00  0.00    +0.000 HD
ENDBRANCH  10  11
BRANCH  10  13
ATOM     13  C   UNL     1       7.307  -4.460   0.117  0.00  0.00    +0.000 C 
BRANCH  13  14
ATOM     14  O   UNL     1       8.710  -4.587   0.262  0.00  0.00    +0.000 OA
BRANCH  14  15
ATOM     15  S   UNL     1       9.327  -6.095   0.090  0.00  0.00    +0.000 S 
ATOM     16  C   UNL     1       8.691  -6.824   1.590  0.00  0.00    +0.000 C 
ATOM     17  O   UNL     1       8.679  -6.750  -1.026  0.00  0.00    +0.000 OA
ATOM     18  O   UNL     1      10.770  -6.016   0.195  0.00  0.00    +0.000 OA
ENDBRANCH  14  15
ENDBRANCH  13  14
ENDBRANCH  10  13
ENDBRANCH   1  10
TORSDOF 9
