REMARK  Name = Treprostinil
REMARK  14 active torsions:
REMARK  status: ('A' for Active; 'I' for Inactive)
REMARK    1  A    between atoms: C_4  and  O_5
REMARK    2  A    between atoms: C_6  and  C_7
REMARK    3  A    between atoms: C_7  and  C_8
REMARK    4  A    between atoms: C_8  and  C_9
REMARK    5  A    between atoms: C_9  and  O_10
REMARK    6  A    between atoms: C_9  and  C_11
REMARK    7  A    between atoms: C_11  and  C_12
REMARK    8  A    between atoms: C_12  and  C_13
REMARK    9  A    between atoms: C_13  and  C_14
REMARK   10  A    between atoms: C_14  and  C_15
REMARK   11  A    between atoms: C_22  and  O_23
REMARK   12  A    between atoms: O_23  and  C_24
REMARK   13  A    between atoms: C_24  and  C_25
REMARK   14  A    between atoms: C_25  and  O_26
REMARK                            x       y       z     vdW  Elec       q    Type
REMARK                         _______ _______ _______ _____ _____    ______ ____
ROOT
ATOM      1  C   UNL     1       2.051  -0.160  -0.051  0.00  0.00    +0.000 C 
ATOM      2  C   UNL     1       2.604  -0.583  -1.403  0.00  0.00    +0.000 C 
ATOM      3  C   UNL     1       2.546  -2.109  -1.332  0.00  0.00    +0.000 C 
ATOM      4  C   UNL     1       2.452  -2.479   0.177  0.00  0.00    +0.000 C 
ATOM      5  C   UNL     1       2.642  -1.144   0.925  0.00  0.00    +0.000 C 
ATOM      6  C   UNL     1       4.137  -0.861   1.144  0.00  0.00    +0.000 C 
ATOM      7  C   UNL     1       4.503   0.599   1.267  0.00  0.00    +0.000 A 
ATOM      8  C   UNL     1       3.650   1.637   0.811  0.00  0.00    +0.000 A 
ATOM      9  C   UNL     1       2.295   1.255   0.327  0.00  0.00    +0.000 C 
ATOM     10  C   UNL     1       4.056   2.988   0.894  0.00  0.00    +0.000 A 
ATOM     11  C   UNL     1       5.329   3.258   1.414  0.00  0.00    +0.000 A 
ATOM     12  C   UNL     1       6.177   2.232   1.847  0.00  0.00    +0.000 A 
ATOM     13  C   UNL     1       5.769   0.908   1.768  0.00  0.00    +0.000 A 
ENDROOT
BRANCH   3  14
ATOM     14  O   UNL     1       3.686  -2.688  -1.941  0.00  0.00    +0.000 OA
ATOM     15  H   UNL     1       4.478  -2.366  -1.484  0.00  0.00    +0.000 HD
ENDBRANCH   3  14
BRANCH   4  16
ATOM     16  C   UNL     1       1.118  -3.137   0.564  0.00  0.00    +0.000 C 
BRANCH  16  17
ATOM     17  C   UNL     1      -0.112  -2.517  -0.089  0.00  0.00    +0.000 C 
BRANCH  17  18
ATOM     18  C   UNL     1      -1.392  -3.206   0.299  0.00  0.00    +0.000 C 
BRANCH  18  19
ATOM     19  O   UNL     1      -1.573  -3.084   1.705  0.00  0.00    +0.000 OA
ATOM     20  H   UNL     1      -1.605  -2.135   1.920  0.00  0.00    +0.000 HD
ENDBRANCH  18  19
BRANCH  18  21
ATOM     21  C   UNL     1      -2.528  -2.518  -0.447  0.00  0.00    +0.000 C 
BRANCH  21  22
ATOM     22  C   UNL     1      -3.834  -3.188  -0.090  0.00  0.00    +0.000 C 
BRANCH  22  23
ATOM     23  C   UNL     1      -4.983  -2.521  -0.818  0.00  0.00    +0.000 C 
BRANCH  23  24
ATOM     24  C   UNL     1      -6.286  -3.207  -0.443  0.00  0.00    +0.000 C 
ATOM     25  C   UNL     1      -7.446  -2.551  -1.159  0.00  0.00    +0.000 C 
ENDBRANCH  23  24
ENDBRANCH  22  23
ENDBRANCH  21  22
ENDBRANCH  18  21
ENDBRANCH  17  18
ENDBRANCH  16  17
ENDBRANCH   4  16
BRANCH  10  26
ATOM     26  O   UNL     1       3.349   4.126   0.536  0.00  0.00    +0.000 OA
BRANCH  26  27
ATOM     27  C   UNL     1       2.062   3.970  -0.048  0.00  0.00    +0.000 C 
BRANCH  27  28
ATOM     28  C   UNL     1       1.278   5.199  -0.432  0.00  0.00    +0.000 C 
ATOM     29  O   UNL     1       0.144   5.143  -0.905  0.00  0.00    +0.000 OA
BRANCH  28  30
ATOM     30  O   UNL     1       1.950   6.346  -0.236  0.00  0.00    +0.000 OA
ATOM     31  H   UNL     1       2.835   6.146   0.138  0.00  0.00    +0.000 HD
ENDBRANCH  28  30
ENDBRANCH  27  28
ENDBRANCH  26  27
ENDBRANCH  10  26
TORSDOF 13
