REMARK  Name = Tretinoin
REMARK  11 active torsions:
REMARK  status: ('A' for Active; 'I' for Inactive)
REMARK    1  A    between atoms: C_1  and  C_2
REMARK    2  A    between atoms: C_2  and  C_3
REMARK    3  A    between atoms: C_4  and  C_5
REMARK    4  A    between atoms: C_6  and  C_7
REMARK    5  A    between atoms: C_11  and  C_12
REMARK    6  A    between atoms: C_11  and  C_13
REMARK    7  A    between atoms: C_14  and  C_15
REMARK    8  A    between atoms: C_16  and  C_17
REMARK    9  A    between atoms: C_17  and  C_18
REMARK   10  A    between atoms: C_19  and  C_20
REMARK   11  A    between atoms: C_20  and  O_21
REMARK                            x       y       z     vdW  Elec       q    Type
REMARK                         _______ _______ _______ _____ _____    ______ ____
ROOT
ATOM      1  C   UNL     1       1.052   0.027   0.078  0.00  0.00    +0.000 C 
ATOM      2  C   UNL     1       2.567   0.022   0.104  0.00  0.00    +0.000 C 
ATOM      3  C   UNL     1       3.258  -1.103   0.418  0.00  0.00    +0.000 C 
ENDROOT
BRANCH   2   4
ATOM      4  C   UNL     1       3.277   1.260  -0.220  0.00  0.00    +0.000 C 
ATOM      5  C   UNL     1       2.727   2.419  -0.630  0.00  0.00    +0.000 C 
BRANCH   5   6
ATOM      6  C   UNL     1       3.461   3.626  -1.011  0.00  0.00    +0.000 C 
ATOM      7  C   UNL     1       4.489   3.585  -1.893  0.00  0.00    +0.000 C 
ATOM      8  C   UNL     1       4.926   2.362  -2.663  0.00  0.00    +0.000 C 
ATOM      9  C   UNL     1       5.323   4.800  -2.233  0.00  0.00    +0.000 C 
ATOM     10  C   UNL     1       5.094   5.995  -1.319  0.00  0.00    +0.000 C 
ATOM     11  C   UNL     1       3.606   6.192  -1.094  0.00  0.00    +0.000 C 
ATOM     12  C   UNL     1       2.952   4.961  -0.404  0.00  0.00    +0.000 C 
ATOM     13  C   UNL     1       1.424   5.148  -0.565  0.00  0.00    +0.000 C 
ATOM     14  C   UNL     1       3.288   4.995   1.100  0.00  0.00    +0.000 C 
ENDBRANCH   5   6
ENDBRANCH   2   4
BRANCH   3  15
ATOM     15  C   UNL     1       2.605  -2.351   0.772  0.00  0.00    +0.000 C 
ATOM     16  C   UNL     1       3.156  -3.527   1.122  0.00  0.00    +0.000 C 
BRANCH  16  17
ATOM     17  C   UNL     1       2.371  -4.728   1.480  0.00  0.00    +0.000 C 
ATOM     18  C   UNL     1       0.873  -4.634   1.453  0.00  0.00    +0.000 C 
ATOM     19  C   UNL     1       2.974  -5.888   1.826  0.00  0.00    +0.000 C 
BRANCH  19  20
ATOM     20  C   UNL     1       2.421  -7.214   2.222  0.00  0.00    +0.000 C 
ATOM     21  O   UNL     1       3.185  -8.136   2.496  0.00  0.00    +0.000 OA
BRANCH  20  22
ATOM     22  O   UNL     1       1.096  -7.409   2.280  0.00  0.00    +0.000 OA
ATOM     23  H   UNL     1       0.480  -6.697   2.068  0.00  0.00    +0.000 HD
ENDBRANCH  20  22
ENDBRANCH  19  20
ENDBRANCH  16  17
ENDBRANCH   3  15
TORSDOF 6
