REMARK  Name = Triamcinolone
REMARK  8 active torsions:
REMARK  status: ('A' for Active; 'I' for Inactive)
REMARK    1  A    between atoms: C_4  and  O_5
REMARK    2  A    between atoms: C_6  and  O_7
REMARK    3  A    between atoms: C_6  and  C_8
REMARK    4  A    between atoms: C_8  and  C_10
REMARK    5  A    between atoms: C_10  and  O_11
REMARK    6  A    between atoms: C_12  and  C_13
REMARK    7  A    between atoms: C_15  and  O_16
REMARK    8  A    between atoms: C_29  and  C_30
REMARK                            x       y       z     vdW  Elec       q    Type
REMARK                         _______ _______ _______ _____ _____    ______ ____
ROOT
ATOM      1  C   UNL     1       1.817  -0.050  -0.132  0.00  0.00    +0.000 C 
ATOM      2  C   UNL     1       2.316   0.070  -1.468  0.00  0.00    +0.000 C 
ATOM      3  C   UNL     1       3.425  -0.493  -0.586  0.00  0.00    +0.000 C 
ATOM      4  C   UNL     1       2.797  -1.077   1.313  0.00  0.00    +0.000 C 
ATOM      5  C   UNL     1       2.689  -1.715   0.151  0.00  0.00    +0.000 C 
ATOM      6  C   UNL     1       1.926  -2.878  -0.353  0.00  0.00    +0.000 C 
ATOM      7  C   UNL     1       4.527  -1.730   0.608  0.00  0.00    +0.000 C 
ATOM      8  C   UNL     1       4.943  -0.109   1.416  0.00  0.00    +0.000 C 
ATOM      9  C   UNL     1       4.094   1.401   0.989  0.00  0.00    +0.000 C 
ATOM     10  F   UNL     1       4.008   1.426  -0.402  0.00  0.00    +0.000 F 
ATOM     11  C   UNL     1       2.450   1.315   0.917  0.00  0.00    +0.000 C 
ATOM     12  C   UNL     1       1.963   2.568   0.156  0.00  0.00    +0.000 C 
ATOM     13  C   UNL     1       2.635   3.802   0.666  0.00  0.00    +0.000 C 
ATOM     14  C   UNL     1       4.050   3.774   0.154  0.00  0.00    +0.000 C 
ATOM     15  C   UNL     1       4.671   4.832  -0.418  0.00  0.00    +0.000 C 
ATOM     16  C   UNL     1       4.560   5.707   0.733  0.00  0.00    +0.000 C 
ATOM     17  O   UNL     1       3.712   6.565   0.863  0.00  0.00    +0.000 OA
ATOM     18  C   UNL     1       5.588   5.186   1.704  0.00  0.00    +0.000 C 
ATOM     19  C   UNL     1       5.732   3.802   1.848  0.00  0.00    +0.000 C 
ATOM     20  C   UNL     1       5.002   2.782   0.808  0.00  0.00    +0.000 C 
ATOM     21  C   UNL     1       5.907   2.417  -0.552  0.00  0.00    +0.000 C 
ENDROOT
BRANCH   3  22
ATOM     22  O   UNL     1       4.847  -0.142  -1.184  0.00  0.00    +0.000 OA
ATOM     23  H   UNL     1       5.602  -0.149  -0.578  0.00  0.00    +0.000 HD
ENDBRANCH   3  22
BRANCH   4  24
ATOM     24  O   UNL     1       1.325  -1.003   1.738  0.00  0.00    +0.000 OA
ATOM     25  H   UNL     1       1.142  -1.133   2.676  0.00  0.00    +0.000 HD
ENDBRANCH   4  24
BRANCH   4  26
ATOM     26  C   UNL     1       2.973  -2.585   2.366  0.00  0.00    +0.000 C 
ATOM     27  O   UNL     1       3.384  -3.678   1.939  0.00  0.00    +0.000 OA
BRANCH  26  28
ATOM     28  C   UNL     1       2.517  -2.688   3.891  0.00  0.00    +0.000 C 
BRANCH  28  29
ATOM     29  O   UNL     1       2.965  -3.936   4.484  0.00  0.00    +0.000 OA
ATOM     30  H   UNL     1       2.713  -4.664   3.878  0.00  0.00    +0.000 HD
ENDBRANCH  28  29
ENDBRANCH  26  28
ENDBRANCH   4  26
BRANCH   8  31
ATOM     31  O   UNL     1       4.831  -0.338   2.833  0.00  0.00    +0.000 OA
ATOM     32  H   UNL     1       3.916  -0.226   3.128  0.00  0.00    +0.000 HD
ENDBRANCH   8  31
TORSDOF 6
