REMARK  Name = Triazolam
REMARK  2 active torsions:
REMARK  status: ('A' for Active; 'I' for Inactive)
REMARK    1  A    between atoms: C_1  and  C_2
REMARK    2  A    between atoms: C_8  and  C_9
REMARK                            x       y       z     vdW  Elec       q    Type
REMARK                         _______ _______ _______ _____ _____    ______ ____
ROOT
ATOM      1  C   UNL     1       1.059  -0.022  -0.046  0.00  0.00    +0.000 C 
ATOM      2  C   UNL     1       2.541  -0.036   0.025  0.00  0.00    +0.000 A 
ATOM      3  N   UNL     1       3.302   1.033  -0.096  0.00  0.00    +0.000 NA
ATOM      4  N   UNL     1       4.609   0.630  -0.125  0.00  0.00    +0.000 NA
ATOM      5  C   UNL     1       4.630  -0.682  -0.035  0.00  0.00    +0.000 A 
ATOM      6  C   UNL     1       5.818  -1.562   0.001  0.00  0.00    +0.000 C 
ATOM      7  N   UNL     1       5.783  -2.482  -1.129  0.00  0.00    +0.000 NA
ATOM      8  C   UNL     1       4.861  -3.371  -1.213  0.00  0.00    +0.000 C 
ATOM      9  C   UNL     1       3.730  -3.575  -0.242  0.00  0.00    +0.000 A 
ATOM     10  C   UNL     1       2.986  -2.516   0.310  0.00  0.00    +0.000 A 
ATOM     11  C   UNL     1       1.883  -2.802   1.132  0.00  0.00    +0.000 A 
ATOM     12  C   UNL     1       1.498  -4.116   1.386  0.00  0.00    +0.000 A 
ATOM     13  C   UNL     1       2.234  -5.161   0.847  0.00  0.00    +0.000 A 
ATOM     14 CL   UNL     1       1.777  -6.781   1.188  0.00  0.00    +0.000 Cl
ATOM     15  C   UNL     1       3.343  -4.900   0.043  0.00  0.00    +0.000 A 
ATOM     16  N   UNL     1       3.347  -1.162   0.097  0.00  0.00    +0.000 N 
ENDROOT
BRANCH   8  17
ATOM     17  C   UNL     1       4.902  -4.279  -2.393  0.00  0.00    +0.000 A 
ATOM     18  C   UNL     1       3.789  -4.309  -3.247  0.00  0.00    +0.000 A 
ATOM     19  C   UNL     1       3.699  -5.293  -4.230  0.00  0.00    +0.000 A 
ATOM     20  C   UNL     1       4.762  -6.173  -4.431  0.00  0.00    +0.000 A 
ATOM     21  C   UNL     1       5.920  -6.064  -3.657  0.00  0.00    +0.000 A 
ATOM     22  C   UNL     1       5.977  -5.148  -2.605  0.00  0.00    +0.000 A 
ATOM     23 CL   UNL     1       7.339  -5.232  -1.545  0.00  0.00    +0.000 Cl
ENDBRANCH   8  17
TORSDOF 1
