REMARK  Name = Triamterene
REMARK  2 active torsions:
REMARK  status: ('A' for Active; 'I' for Inactive)
REMARK    1  A    between atoms: C_4  and  N_5
REMARK    2  A    between atoms: C_8  and  C_14
REMARK                            x       y       z     vdW  Elec       q    Type
REMARK                         _______ _______ _______ _____ _____    ______ ____
ROOT
ATOM      1  N   UNL     1       1.208   0.062  -0.080  0.00  0.00    +0.000 N 
ATOM      2  C   UNL     1       2.578   0.055  -0.076  0.00  0.00    +0.000 A 
ATOM      3  N   UNL     1       3.179  -1.129  -0.071  0.00  0.00    +0.000 NA
ATOM      4  C   UNL     1       4.524  -1.120  -0.079  0.00  0.00    +0.000 A 
ATOM      5  C   UNL     1       5.295   0.040  -0.095  0.00  0.00    +0.000 A 
ATOM      6  N   UNL     1       6.666   0.006  -0.105  0.00  0.00    +0.000 NA
ATOM      7  C   UNL     1       7.296   1.203  -0.076  0.00  0.00    +0.000 A 
ATOM      8  C   UNL     1       6.571   2.405  -0.084  0.00  0.00    +0.000 A 
ATOM      9  N   UNL     1       7.205   3.639   0.022  0.00  0.00    +0.000 N 
ATOM     10  N   UNL     1       5.213   2.403  -0.088  0.00  0.00    +0.000 NA
ATOM     11  C   UNL     1       4.557   1.222  -0.087  0.00  0.00    +0.000 A 
ATOM     12  N   UNL     1       3.214   1.228  -0.079  0.00  0.00    +0.000 NA
ATOM     13  H   UNL     1       0.724  -0.820  -0.080  0.00  0.00    +0.000 HD
ATOM     14  H   UNL     1       0.727   0.943  -0.081  0.00  0.00    +0.000 HD
ATOM     15  H   UNL     1       8.189   3.704  -0.212  0.00  0.00    +0.000 HD
ATOM     16  H   UNL     1       6.630   4.461  -0.093  0.00  0.00    +0.000 HD
ENDROOT
BRANCH   7  17
ATOM     17  C   UNL     1       8.771   1.160  -0.043  0.00  0.00    +0.000 A 
ATOM     18  C   UNL     1       9.484   1.762   1.011  0.00  0.00    +0.000 A 
ATOM     19  C   UNL     1      10.880   1.797   1.018  0.00  0.00    +0.000 A 
ATOM     20  C   UNL     1      11.593   1.211  -0.023  0.00  0.00    +0.000 A 
ATOM     21  C   UNL     1      10.910   0.598  -1.072  0.00  0.00    +0.000 A 
ATOM     22  C   UNL     1       9.510   0.572  -1.082  0.00  0.00    +0.000 A 
ENDBRANCH   7  17
BRANCH   4  23
ATOM     23  N   UNL     1       5.150  -2.359  -0.127  0.00  0.00    +0.000 N 
ATOM     24  H   UNL     1       4.589  -3.192  -0.049  0.00  0.00    +0.000 HD
ATOM     25  H   UNL     1       6.158  -2.377  -0.019  0.00  0.00    +0.000 HD
ENDBRANCH   4  23
TORSDOF 2
