REMARK  Name = Triclosan
REMARK  3 active torsions:
REMARK  status: ('A' for Active; 'I' for Inactive)
REMARK    1  A    between atoms: O_1  and  C_2
REMARK    2  A    between atoms: C_8  and  O_9
REMARK    3  A    between atoms: O_9  and  C_10
REMARK                            x       y       z     vdW  Elec       q    Type
REMARK                         _______ _______ _______ _____ _____    ______ ____
ROOT
ATOM      1  C   UNL     1       1.581  -0.524   0.147  0.00  0.00    +0.000 A 
ATOM      2  C   UNL     1       0.240  -0.896   0.055  0.00  0.00    +0.000 A 
ATOM      3  C   UNL     1      -0.740   0.090  -0.009  0.00  0.00    +0.000 A 
ATOM      4 CL   UNL     1      -2.396  -0.374  -0.040  0.00  0.00    +0.000 Cl
ATOM      5  C   UNL     1      -0.388   1.436  -0.012  0.00  0.00    +0.000 A 
ATOM      6  C   UNL     1       0.964   1.803   0.007  0.00  0.00    +0.000 A 
ATOM      7  C   UNL     1       1.968   0.822   0.067  0.00  0.00    +0.000 A 
ENDROOT
BRANCH   1   8
ATOM      8  O   UNL     1       2.493  -1.525   0.348  0.00  0.00    +0.000 OA
ATOM      9  H   UNL     1       2.141  -2.356  -0.005  0.00  0.00    +0.000 HD
ENDBRANCH   1   8
BRANCH   7  10
ATOM     10  O   UNL     1       3.263   1.318   0.025  0.00  0.00    +0.000 OA
BRANCH  10  11
ATOM     11  C   UNL     1       4.317   0.438  -0.088  0.00  0.00    +0.000 A 
ATOM     12  C   UNL     1       4.521  -0.412  -1.188  0.00  0.00    +0.000 A 
ATOM     13 CL   UNL     1       3.528  -0.359  -2.605  0.00  0.00    +0.000 Cl
ATOM     14  C   UNL     1       5.526  -1.381  -1.143  0.00  0.00    +0.000 A 
ATOM     15  C   UNL     1       6.389  -1.430  -0.049  0.00  0.00    +0.000 A 
ATOM     16 CL   UNL     1       7.634  -2.617  -0.003  0.00  0.00    +0.000 Cl
ATOM     17  C   UNL     1       6.257  -0.524   1.001  0.00  0.00    +0.000 A 
ATOM     18  C   UNL     1       5.218   0.410   0.985  0.00  0.00    +0.000 A 
ENDBRANCH  10  11
ENDBRANCH   7  10
TORSDOF 3
