REMARK  Name = Trichlormethiazide
REMARK  3 active torsions:
REMARK  status: ('A' for Active; 'I' for Inactive)
REMARK    1  A    between atoms: N_1  and  S_2
REMARK    2  A    between atoms: S_2  and  C_5
REMARK    3  A    between atoms: C_11  and  C_18
REMARK                            x       y       z     vdW  Elec       q    Type
REMARK                         _______ _______ _______ _____ _____    ______ ____
ROOT
ATOM      1  C   UNL     1       3.227   0.992  -1.252  0.00  0.00    +0.000 A 
ATOM      2  C   UNL     1       3.732   0.489  -2.453  0.00  0.00    +0.000 A 
ATOM      3 CL   UNL     1       4.128  -1.160  -2.761  0.00  0.00    +0.000 Cl
ATOM      4  C   UNL     1       3.941   1.360  -3.537  0.00  0.00    +0.000 A 
ATOM      5  C   UNL     1       3.709   2.736  -3.438  0.00  0.00    +0.000 A 
ATOM      6  N   UNL     1       3.742   3.516  -4.593  0.00  0.00    +0.000 N 
ATOM      7  C   UNL     1       3.982   4.950  -4.453  0.00  0.00    +0.000 C 
ATOM      8  N   UNL     1       2.873   5.434  -3.646  0.00  0.00    +0.000 NA
ATOM      9  S   UNL     1       2.994   4.959  -2.046  0.00  0.00    +0.000 S 
ATOM     10  O   UNL     1       4.171   5.566  -1.482  0.00  0.00    +0.000 OA
ATOM     11  O   UNL     1       1.670   5.125  -1.481  0.00  0.00    +0.000 OA
ATOM     12  C   UNL     1       3.302   3.228  -2.197  0.00  0.00    +0.000 A 
ATOM     13  C   UNL     1       3.051   2.381  -1.108  0.00  0.00    +0.000 A 
ATOM     14  H   UNL     1       4.189   3.089  -5.404  0.00  0.00    +0.000 HD
ATOM     15  H   UNL     1       1.951   5.217  -4.017  0.00  0.00    +0.000 HD
ENDROOT
BRANCH   1  16
ATOM     16  S   UNL     1       2.749  -0.036   0.112  0.00  0.00    +0.000 S 
ATOM     17  O   UNL     1       3.126   0.632   1.334  0.00  0.00    +0.000 OA
ATOM     18  O   UNL     1       3.071  -1.423  -0.118  0.00  0.00    +0.000 OA
BRANCH  16  19
ATOM     19  N   UNL     1       1.062   0.024   0.024  0.00  0.00    +0.000 NA
ATOM     20  H   UNL     1       0.687  -0.477   0.836  0.00  0.00    +0.000 HD
ATOM     21  H   UNL     1       0.713  -0.405  -0.833  0.00  0.00    +0.000 HD
ENDBRANCH  16  19
ENDBRANCH   1  16
BRANCH   7  22
ATOM     22  C   UNL     1       3.995   5.643  -5.849  0.00  0.00    +0.000 C 
ATOM     23 CL   UNL     1       4.191   7.409  -5.729  0.00  0.00    +0.000 Cl
ATOM     24 CL   UNL     1       5.297   4.969  -6.880  0.00  0.00    +0.000 Cl
ENDBRANCH   7  22
TORSDOF 3
