REMARK  Name = Trichloroethylene
REMARK  0 active torsions:
REMARK  status: ('A' for Active; 'I' for Inactive)
REMARK                            x       y       z     vdW  Elec       q    Type
REMARK                         _______ _______ _______ _____ _____    ______ ____
ROOT
ATOM      1 CL   UNL     1       2.227  -0.548   0.000  0.00  0.00    +0.000 Cl
ATOM      2  C   UNL     1       0.564  -0.969   0.002  0.00  0.00    +0.000 C 
ATOM      3  C   UNL     1      -0.459  -0.111   0.003  0.00  0.00    +0.000 C 
ATOM      4 CL   UNL     1      -0.260   1.603   0.004  0.00  0.00    +0.000 Cl
ATOM      5 CL   UNL     1      -2.080  -0.717   0.002  0.00  0.00    +0.000 Cl
ENDROOT
TORSDOF 0
