REMARK  Name = Triclabendazole
REMARK  4 active torsions:
REMARK  status: ('A' for Active; 'I' for Inactive)
REMARK    1  A    between atoms: C_1  and  S_2
REMARK    2  A    between atoms: S_2  and  C_3
REMARK    3  A    between atoms: C_11  and  O_12
REMARK    4  A    between atoms: O_12  and  C_13
REMARK                            x       y       z     vdW  Elec       q    Type
REMARK                         _______ _______ _______ _____ _____    ______ ____
ROOT
ATOM      1  C   UNL     1       3.345   1.660  -0.216  0.00  0.00    +0.000 A 
ATOM      2  N   UNL     1       2.609   2.727  -0.014  0.00  0.00    +0.000 NA
ATOM      3  C   UNL     1       3.462   3.796  -0.227  0.00  0.00    +0.000 A 
ATOM      4  C   UNL     1       4.726   3.342  -0.571  0.00  0.00    +0.000 A 
ATOM      5  N   UNL     1       4.630   1.977  -0.547  0.00  0.00    +0.000 N 
ATOM      6  C   UNL     1       5.799   4.184  -0.830  0.00  0.00    +0.000 A 
ATOM      7  C   UNL     1       5.597   5.563  -0.682  0.00  0.00    +0.000 A 
ATOM      8 CL   UNL     1       7.090   6.440  -0.772  0.00  0.00    +0.000 Cl
ATOM      9  C   UNL     1       4.317   6.090  -0.406  0.00  0.00    +0.000 A 
ATOM     10  C   UNL     1       3.246   5.188  -0.157  0.00  0.00    +0.000 A 
ATOM     11  H   UNL     1       5.370   1.318  -0.724  0.00  0.00    +0.000 HD
ENDROOT
BRANCH   1  13
ATOM     12  C   UNL     1       1.121   0.038  -0.089  0.00  0.00    +0.000 C 
ATOM     13  S   UNL     1       2.924  -0.010  -0.108  0.00  0.00    +0.000 S 
ENDBRANCH   1  13
BRANCH   9  14
ATOM     14  O   UNL     1       3.923   7.420  -0.307  0.00  0.00    +0.000 OA
BRANCH  14  15
ATOM     15  C   UNL     1       4.796   8.434  -0.633  0.00  0.00    +0.000 A 
ATOM     16  C   UNL     1       5.290   8.552  -1.939  0.00  0.00    +0.000 A 
ATOM     17  C   UNL     1       6.335   9.438  -2.207  0.00  0.00    +0.000 A 
ATOM     18  C   UNL     1       6.794  10.295  -1.207  0.00  0.00    +0.000 A 
ATOM     19  C   UNL     1       6.202  10.279   0.061  0.00  0.00    +0.000 A 
ATOM     20 CL   UNL     1       6.777  11.430   1.218  0.00  0.00    +0.000 Cl
ATOM     21  C   UNL     1       5.204   9.339   0.361  0.00  0.00    +0.000 A 
ATOM     22 CL   UNL     1       4.509   9.242   1.946  0.00  0.00    +0.000 Cl
ENDBRANCH  14  15
ENDBRANCH   9  14
TORSDOF 3
