REMARK  Name = Triclocarban
REMARK  2 active torsions:
REMARK  status: ('A' for Active; 'I' for Inactive)
REMARK    1  A    between atoms: C_5  and  N_6
REMARK    2  A    between atoms: N_9  and  C_10
REMARK                            x       y       z     vdW  Elec       q    Type
REMARK                         _______ _______ _______ _____ _____    ______ ____
ROOT
ATOM      1  N   UNL     1       3.919   0.166   0.062  0.00  0.00    +0.000 N 
ATOM      2  C   UNL     1       4.620   1.368   0.086  0.00  0.00    +0.000 C 
ATOM      3  O   UNL     1       4.079   2.475   0.032  0.00  0.00    +0.000 OA
ATOM      4  N   UNL     1       6.007   1.287   0.154  0.00  0.00    +0.000 N 
ATOM      5  H   UNL     1       4.429  -0.707   0.091  0.00  0.00    +0.000 HD
ATOM      6  H   UNL     1       6.463   0.445  -0.165  0.00  0.00    +0.000 HD
ENDROOT
BRANCH   4   7
ATOM      7  C   UNL     1       6.775   2.503   0.168  0.00  0.00    +0.000 A 
ATOM      8  C   UNL     1       6.384   3.584   0.979  0.00  0.00    +0.000 A 
ATOM      9  C   UNL     1       7.087   4.796   0.984  0.00  0.00    +0.000 A 
ATOM     10 CL   UNL     1       6.519   6.054   2.026  0.00  0.00    +0.000 Cl
ATOM     11  C   UNL     1       8.208   4.947   0.170  0.00  0.00    +0.000 A 
ATOM     12 CL   UNL     1       9.142   6.401   0.141  0.00  0.00    +0.000 Cl
ATOM     13  C   UNL     1       8.608   3.883  -0.647  0.00  0.00    +0.000 A 
ATOM     14  C   UNL     1       7.906   2.660  -0.639  0.00  0.00    +0.000 A 
ENDBRANCH   4   7
BRANCH   1  19
ATOM     15 CL   UNL     1      -2.080  -0.095  -0.013  0.00  0.00    +0.000 Cl
ATOM     16  C   UNL     1      -0.361  -0.044  -0.015  0.00  0.00    +0.000 A 
ATOM     17  C   UNL     1       0.399  -1.213  -0.014  0.00  0.00    +0.000 A 
ATOM     18  C   UNL     1       1.814  -1.154   0.005  0.00  0.00    +0.000 A 
ATOM     19  C   UNL     1       2.479   0.084   0.019  0.00  0.00    +0.000 A 
ATOM     20  C   UNL     1       1.670   1.231  -0.002  0.00  0.00    +0.000 A 
ATOM     21  C   UNL     1       0.276   1.180  -0.015  0.00  0.00    +0.000 A 
ENDBRANCH   1  19
TORSDOF 2
