REMARK  Name = Triethylenetetramine
REMARK  9 active torsions:
REMARK  status: ('A' for Active; 'I' for Inactive)
REMARK    1  A    between atoms: N_1  and  C_2
REMARK    2  A    between atoms: C_2  and  C_3
REMARK    3  A    between atoms: C_3  and  N_4
REMARK    4  A    between atoms: N_4  and  C_5
REMARK    5  A    between atoms: C_5  and  C_6
REMARK    6  A    between atoms: C_6  and  N_7
REMARK    7  A    between atoms: N_7  and  C_8
REMARK    8  A    between atoms: C_8  and  C_9
REMARK    9  A    between atoms: C_9  and  N_10
REMARK                            x       y       z     vdW  Elec       q    Type
REMARK                         _______ _______ _______ _____ _____    ______ ____
ROOT
ATOM      1  C   UNL     1       4.851  -1.977  -1.925  0.00  0.00    +0.000 C 
ENDROOT
BRANCH   1   2
ATOM      2  N   UNL     1       4.354  -1.001  -0.950  0.00  0.00    +0.000 NA
ATOM      3  H   UNL     1       4.693  -1.253  -0.022  0.00  0.00    +0.000 HD
BRANCH   2   4
ATOM      4  C   UNL     1       2.889  -0.992  -0.952  0.00  0.00    +0.000 C 
BRANCH   4   5
ATOM      5  C   UNL     1       2.352   0.029   0.062  0.00  0.00    +0.000 C 
BRANCH   5   6
ATOM      6  N   UNL     1       0.890   0.038   0.073  0.00  0.00    +0.000 NA
ATOM      7  H   UNL     1       0.566   0.697   0.780  0.00  0.00    +0.000 HD
ATOM      8  H   UNL     1       0.546  -0.878   0.351  0.00  0.00    +0.000 HD
ENDBRANCH   5   6
ENDBRANCH   4   5
ENDBRANCH   2   4
ENDBRANCH   1   2
BRANCH   1   9
ATOM      9  C   UNL     1       6.386  -1.981  -1.937  0.00  0.00    +0.000 C 
BRANCH   9  10
ATOM     10  N   UNL     1       6.882  -2.957  -2.911  0.00  0.00    +0.000 NA
ATOM     11  H   UNL     1       6.543  -2.705  -3.839  0.00  0.00    +0.000 HD
BRANCH  10  12
ATOM     12  C   UNL     1       8.347  -2.966  -2.909  0.00  0.00    +0.000 C 
BRANCH  12  13
ATOM     13  C   UNL     1       8.885  -3.987  -3.923  0.00  0.00    +0.000 C 
BRANCH  13  14
ATOM     14  N   UNL     1      10.346  -3.996  -3.934  0.00  0.00    +0.000 NA
ATOM     15  H   UNL     1      10.691  -3.080  -4.213  0.00  0.00    +0.000 HD
ATOM     16  H   UNL     1      10.670  -4.655  -4.642  0.00  0.00    +0.000 HD
ENDBRANCH  13  14
ENDBRANCH  12  13
ENDBRANCH  10  12
ENDBRANCH   9  10
ENDBRANCH   1   9
TORSDOF 9
