REMARK  Name = Triflupromazine
REMARK  7 active torsions:
REMARK  status: ('A' for Active; 'I' for Inactive)
REMARK    1  A    between atoms: C_1  and  N_2
REMARK    2  A    between atoms: N_2  and  C_3
REMARK    3  A    between atoms: N_2  and  C_4
REMARK    4  A    between atoms: C_4  and  C_5
REMARK    5  A    between atoms: C_5  and  C_6
REMARK    6  A    between atoms: C_6  and  N_7
REMARK    7  A    between atoms: C_18  and  C_21
REMARK                            x       y       z     vdW  Elec       q    Type
REMARK                         _______ _______ _______ _____ _____    ______ ____
ROOT
ATOM      1  N   UNL     1       6.475   2.302   1.595  0.00  0.00    +0.000 N 
ATOM      2  C   UNL     1       7.188   1.091   1.392  0.00  0.00    +0.000 A 
ATOM      3  C   UNL     1       6.967   0.320   0.234  0.00  0.00    +0.000 A 
ATOM      4  C   UNL     1       7.680  -0.846  -0.039  0.00  0.00    +0.000 A 
ATOM      5  C   UNL     1       8.714  -1.217   0.793  0.00  0.00    +0.000 A 
ATOM      6  C   UNL     1       9.017  -0.440   1.912  0.00  0.00    +0.000 A 
ATOM      7  C   UNL     1       8.254   0.703   2.217  0.00  0.00    +0.000 A 
ATOM      8  S   UNL     1       8.723   1.671   3.643  0.00  0.00    +0.000 S 
ATOM      9  C   UNL     1       8.212   3.279   3.059  0.00  0.00    +0.000 A 
ATOM     10  C   UNL     1       7.119   3.424   2.182  0.00  0.00    +0.000 A 
ATOM     11  C   UNL     1       6.781   4.713   1.742  0.00  0.00    +0.000 A 
ATOM     12  C   UNL     1       7.512   5.839   2.149  0.00  0.00    +0.000 A 
ATOM     13  C   UNL     1       8.597   5.669   3.018  0.00  0.00    +0.000 A 
ATOM     14  C   UNL     1       8.942   4.398   3.475  0.00  0.00    +0.000 A 
ENDROOT
BRANCH  12  15
ATOM     15  C   UNL     1       7.153   7.209   1.638  0.00  0.00    +0.000 C 
ATOM     16  F   UNL     1       6.816   8.061   2.645  0.00  0.00    +0.000 F 
ATOM     17  F   UNL     1       8.177   7.803   0.967  0.00  0.00    +0.000 F 
ATOM     18  F   UNL     1       6.094   7.211   0.780  0.00  0.00    +0.000 F 
ENDBRANCH  12  15
BRANCH   1  19
ATOM     19  C   UNL     1       4.990   2.275   1.802  0.00  0.00    +0.000 C 
BRANCH  19  20
ATOM     20  C   UNL     1       4.305   1.219   0.954  0.00  0.00    +0.000 C 
BRANCH  20  21
ATOM     21  C   UNL     1       2.793   1.194   0.927  0.00  0.00    +0.000 C 
BRANCH  21  23
ATOM     22  C   UNL     1       0.877   0.048   0.049  0.00  0.00    +0.000 C 
ATOM     23  N   UNL     1       2.336   0.098   0.043  0.00  0.00    +0.000 NA
ATOM     24  C   UNL     1       2.816   0.224  -1.340  0.00  0.00    +0.000 C 
ENDBRANCH  21  23
ENDBRANCH  20  21
ENDBRANCH  19  20
ENDBRANCH   1  19
TORSDOF 5
