REMARK  Name = Triflusal
REMARK  6 active torsions:
REMARK  status: ('A' for Active; 'I' for Inactive)
REMARK    1  A    between atoms: C_1  and  C_2
REMARK    2  A    between atoms: C_2  and  O_4
REMARK    3  A    between atoms: O_4  and  C_5
REMARK    4  A    between atoms: C_6  and  C_15
REMARK    5  A    between atoms: C_9  and  C_11
REMARK    6  A    between atoms: C_15  and  O_16
REMARK                            x       y       z     vdW  Elec       q    Type
REMARK                         _______ _______ _______ _____ _____    ______ ____
ROOT
ATOM      1  C   UNL     1       4.529   0.850   0.904  0.00  0.00    +0.000 A 
ATOM      2  C   UNL     1       5.234   1.019   2.114  0.00  0.00    +0.000 A 
ATOM      3  C   UNL     1       6.624   1.241   2.042  0.00  0.00    +0.000 A 
ATOM      4  C   UNL     1       7.304   1.162   0.820  0.00  0.00    +0.000 A 
ATOM      5  C   UNL     1       6.601   0.963  -0.372  0.00  0.00    +0.000 A 
ATOM      6  C   UNL     1       5.210   0.845  -0.321  0.00  0.00    +0.000 A 
ENDROOT
BRANCH   5   7
ATOM      7  C   UNL     1       7.323   0.934  -1.695  0.00  0.00    +0.000 C 
ATOM      8  F   UNL     1       8.001   2.092  -1.923  0.00  0.00    +0.000 F 
ATOM      9  F   UNL     1       8.245  -0.063  -1.769  0.00  0.00    +0.000 F 
ATOM     10  F   UNL     1       6.497   0.769  -2.764  0.00  0.00    +0.000 F 
ENDBRANCH   5   7
BRANCH   2  11
ATOM     11  C   UNL     1       4.526   0.871   3.425  0.00  0.00    +0.000 C 
ATOM     12  O   UNL     1       3.331   0.619   3.509  0.00  0.00    +0.000 OA
BRANCH  11  13
ATOM     13  O   UNL     1       5.279   0.968   4.542  0.00  0.00    +0.000 OA
ATOM     14  H   UNL     1       6.237   1.103   4.470  0.00  0.00    +0.000 HD
ENDBRANCH  11  13
ENDBRANCH   2  11
BRANCH   1  15
ATOM     15  O   UNL     1       3.110   0.791   0.892  0.00  0.00    +0.000 OA
BRANCH  15  17
ATOM     16  C   UNL     1       0.996  -0.011   0.115  0.00  0.00    +0.000 C 
ATOM     17  C   UNL     1       2.490  -0.144   0.063  0.00  0.00    +0.000 C 
ATOM     18  O   UNL     1       3.060  -0.968  -0.642  0.00  0.00    +0.000 OA
ENDBRANCH  15  17
ENDBRANCH   1  15
TORSDOF 5
