REMARK  Name = Trifluoperazine
REMARK  6 active torsions:
REMARK  status: ('A' for Active; 'I' for Inactive)
REMARK    1  A    between atoms: C_1  and  N_2
REMARK    2  A    between atoms: N_5  and  C_6
REMARK    3  A    between atoms: C_6  and  C_7
REMARK    4  A    between atoms: C_7  and  C_8
REMARK    5  A    between atoms: C_8  and  N_9
REMARK    6  A    between atoms: C_20  and  C_23
REMARK                            x       y       z     vdW  Elec       q    Type
REMARK                         _______ _______ _______ _____ _____    ______ ____
ROOT
ATOM      1  N   UNL     1      -3.950  -2.509   3.832  0.00  0.00    +0.000 N 
ATOM      2  C   UNL     1      -4.208  -2.763   5.199  0.00  0.00    +0.000 A 
ATOM      3  C   UNL     1      -4.423  -1.716   6.108  0.00  0.00    +0.000 A 
ATOM      4  C   UNL     1      -4.892  -1.969   7.396  0.00  0.00    +0.000 A 
ATOM      5  C   UNL     1      -5.122  -3.279   7.810  0.00  0.00    +0.000 A 
ATOM      6  C   UNL     1      -4.868  -4.338   6.942  0.00  0.00    +0.000 A 
ATOM      7  C   UNL     1      -4.416  -4.089   5.644  0.00  0.00    +0.000 A 
ATOM      8  S   UNL     1      -4.141  -5.485   4.551  0.00  0.00    +0.000 S 
ATOM      9  C   UNL     1      -4.625  -4.722   3.010  0.00  0.00    +0.000 A 
ATOM     10  C   UNL     1      -4.520  -3.329   2.840  0.00  0.00    +0.000 A 
ATOM     11  C   UNL     1      -5.094  -2.795   1.683  0.00  0.00    +0.000 A 
ATOM     12  C   UNL     1      -5.478  -3.576   0.594  0.00  0.00    +0.000 A 
ATOM     13  C   UNL     1      -5.539  -4.960   0.769  0.00  0.00    +0.000 A 
ATOM     14  C   UNL     1      -5.155  -5.522   1.990  0.00  0.00    +0.000 A 
ENDROOT
BRANCH  12  15
ATOM     15  C   UNL     1      -5.805  -2.917  -0.720  0.00  0.00    +0.000 C 
ATOM     16  F   UNL     1      -5.108  -3.451  -1.762  0.00  0.00    +0.000 F 
ATOM     17  F   UNL     1      -7.119  -3.025  -1.046  0.00  0.00    +0.000 F 
ATOM     18  F   UNL     1      -5.523  -1.581  -0.741  0.00  0.00    +0.000 F 
ENDBRANCH  12  15
BRANCH   1  19
ATOM     19  C   UNL     1      -3.167  -1.287   3.510  0.00  0.00    +0.000 C 
BRANCH  19  20
ATOM     20  C   UNL     1      -2.661  -1.241   2.080  0.00  0.00    +0.000 C 
BRANCH  20  21
ATOM     21  C   UNL     1      -1.947   0.029   1.691  0.00  0.00    +0.000 C 
BRANCH  21  26
ATOM     22  C   UNL     1       2.514   0.008   0.061  0.00  0.00    +0.000 C 
ATOM     23  N   UNL     1       1.110   0.021  -0.312  0.00  0.00    +0.000 NA
ATOM     24  C   UNL     1       0.431   1.231   0.191  0.00  0.00    +0.000 C 
ATOM     25  C   UNL     1      -1.065   1.247  -0.198  0.00  0.00    +0.000 C 
ATOM     26  N   UNL     1      -1.781   0.030   0.223  0.00  0.00    +0.000 NA
ATOM     27  C   UNL     1      -1.045  -1.156  -0.286  0.00  0.00    +0.000 C 
ATOM     28  C   UNL     1       0.421  -1.184   0.179  0.00  0.00    +0.000 C 
ENDBRANCH  21  26
ENDBRANCH  20  21
ENDBRANCH  19  20
ENDBRANCH   1  19
TORSDOF 5
