REMARK  Name = Trifluridine
REMARK  5 active torsions:
REMARK  status: ('A' for Active; 'I' for Inactive)
REMARK    1  A    between atoms: O5*_1  and  C5*_2
REMARK    2  A    between atoms: C5*_2  and  C4*_3
REMARK    3  A    between atoms: C1*_5  and  N_9
REMARK    4  A    between atoms: C3*_7  and  O3*_8
REMARK    5  A    between atoms: C_11  and  C_17
REMARK                            x       y       z     vdW  Elec       q    Type
REMARK                         _______ _______ _______ _____ _____    ______ ____
ROOT
ATOM      1  N   UNL     1       5.270   2.477  -1.285  0.00  0.00    +0.000 N 
ATOM      2  C   UNL     1       4.878   1.680  -2.345  0.00  0.00    +0.000 A 
ATOM      3  C   UNL     1       5.681   1.396  -3.376  0.00  0.00    +0.000 A 
ATOM      4  C   UNL     1       6.978   2.068  -3.442  0.00  0.00    +0.000 A 
ATOM      5  O   UNL     1       7.806   1.816  -4.312  0.00  0.00    +0.000 OA
ATOM      6  N   UNL     1       7.208   3.004  -2.473  0.00  0.00    +0.000 N 
ATOM      7  C   UNL     1       6.494   3.139  -1.306  0.00  0.00    +0.000 A 
ATOM      8  O   UNL     1       6.943   3.808  -0.381  0.00  0.00    +0.000 OA
ATOM      9  H   UNL     1       8.097   3.481  -2.506  0.00  0.00    +0.000 HD
ENDROOT
BRANCH   1  12
ATOM     10  C4* UNL     1       2.859   1.113   0.849  0.00  0.00    +0.000 C 
ATOM     11  O4* UNL     1       4.255   1.283   0.507  0.00  0.00    +0.000 OA
ATOM     12  C1* UNL     1       4.435   2.586  -0.087  0.00  0.00    +0.000 C 
ATOM     13  C2* UNL     1       3.050   3.159  -0.359  0.00  0.00    +0.000 C 
ATOM     14  C3* UNL     1       2.199   2.483   0.686  0.00  0.00    +0.000 C 
BRANCH  14  15
ATOM     15  O3* UNL     1       2.263   3.247   1.895  0.00  0.00    +0.000 OA
ATOM     16  H3* UNL     1       3.166   3.213   2.254  0.00  0.00    +0.000 HD
ENDBRANCH  14  15
BRANCH  10  17
ATOM     17  C5* UNL     1       2.296   0.016  -0.062  0.00  0.00    +0.000 C 
BRANCH  17  18
ATOM     18  O5* UNL     1       0.880  -0.018  -0.045  0.00  0.00    +0.000 OA
ATOM     19  H5* UNL     1       0.602  -0.726  -0.654  0.00  0.00    +0.000 HD
ENDBRANCH  17  18
ENDBRANCH  10  17
ENDBRANCH   1  12
BRANCH   3  20
ATOM     20  C   UNL     1       5.380   0.418  -4.442  0.00  0.00    +0.000 C 
ATOM     21  F   UNL     1       5.382   0.961  -5.682  0.00  0.00    +0.000 F 
ATOM     22  F   UNL     1       6.243  -0.629  -4.442  0.00  0.00    +0.000 F 
ATOM     23  F   UNL     1       4.140  -0.127  -4.272  0.00  0.00    +0.000 F 
ENDBRANCH   3  20
TORSDOF 5
