REMARK  Name = Triheptanoin
REMARK  26 active torsions:
REMARK  status: ('A' for Active; 'I' for Inactive)
REMARK    1  A    between atoms: C_1  and  C_2
REMARK    2  A    between atoms: C_2  and  C_3
REMARK    3  A    between atoms: C_3  and  C_4
REMARK    4  A    between atoms: C_4  and  C_5
REMARK    5  A    between atoms: C_5  and  C_6
REMARK    6  A    between atoms: C_6  and  C_7
REMARK    7  A    between atoms: C_7  and  O_9
REMARK    8  A    between atoms: O_9  and  C_10
REMARK    9  A    between atoms: C_10  and  C_11
REMARK   10  A    between atoms: C_11  and  C_12
REMARK   11  A    between atoms: C_11  and  O_22
REMARK   12  A    between atoms: C_12  and  O_13
REMARK   13  A    between atoms: O_13  and  C_14
REMARK   14  A    between atoms: C_14  and  C_16
REMARK   15  A    between atoms: C_16  and  C_17
REMARK   16  A    between atoms: C_17  and  C_18
REMARK   17  A    between atoms: C_18  and  C_19
REMARK   18  A    between atoms: C_19  and  C_20
REMARK   19  A    between atoms: C_20  and  C_21
REMARK   20  A    between atoms: O_22  and  C_23
REMARK   21  A    between atoms: C_23  and  C_25
REMARK   22  A    between atoms: C_25  and  C_26
REMARK   23  A    between atoms: C_26  and  C_27
REMARK   24  A    between atoms: C_27  and  C_28
REMARK   25  A    between atoms: C_28  and  C_29
REMARK   26  A    between atoms: C_29  and  C_30
REMARK                            x       y       z     vdW  Elec       q    Type
REMARK                         _______ _______ _______ _____ _____    ______ ____
ROOT
ATOM      1  C   UNL     1      10.544  -5.888  -0.757  0.00  0.00    +0.000 C 
ENDROOT
BRANCH   1   2
ATOM      2  O   UNL     1      11.036  -7.260  -0.915  0.00  0.00    +0.000 OA
BRANCH   2   3
ATOM      3  C   UNL     1      12.395  -7.399  -1.023  0.00  0.00    +0.000 C 
ATOM      4  O   UNL     1      13.177  -6.456  -1.004  0.00  0.00    +0.000 OA
BRANCH   3   5
ATOM      5  C   UNL     1      12.838  -8.844  -1.172  0.00  0.00    +0.000 C 
BRANCH   5   6
ATOM      6  C   UNL     1      14.374  -8.917  -1.175  0.00  0.00    +0.000 C 
BRANCH   6   7
ATOM      7  C   UNL     1      14.902 -10.337  -1.352  0.00  0.00    +0.000 C 
BRANCH   7   8
ATOM      8  C   UNL     1      16.432 -10.346  -1.353  0.00  0.00    +0.000 C 
BRANCH   8   9
ATOM      9  C   UNL     1      16.968 -11.763  -1.531  0.00  0.00    +0.000 C 
ATOM     10  C   UNL     1      18.486 -11.771  -1.532  0.00  0.00    +0.000 C 
ENDBRANCH   8   9
ENDBRANCH   7   8
ENDBRANCH   6   7
ENDBRANCH   5   6
ENDBRANCH   3   5
ENDBRANCH   2   3
ENDBRANCH   1   2
BRANCH   1  11
ATOM     11  C   UNL     1      11.028  -5.275   0.574  0.00  0.00    +0.000 C 
BRANCH  11  12
ATOM     12  O   UNL     1      10.577  -3.919   0.731  0.00  0.00    +0.000 OA
BRANCH  12  13
ATOM     13  C   UNL     1      10.960  -3.348   1.903  0.00  0.00    +0.000 C 
ATOM     14  O   UNL     1      11.639  -3.910   2.755  0.00  0.00    +0.000 OA
BRANCH  13  15
ATOM     15  C   UNL     1      10.421  -1.940   2.019  0.00  0.00    +0.000 C 
BRANCH  15  16
ATOM     16  C   UNL     1      10.893  -1.319   3.332  0.00  0.00    +0.000 C 
BRANCH  16  17
ATOM     17  C   UNL     1      10.388   0.105   3.518  0.00  0.00    +0.000 C 
BRANCH  17  18
ATOM     18  C   UNL     1      10.891   0.674   4.843  0.00  0.00    +0.000 C 
BRANCH  18  19
ATOM     19  C   UNL     1      10.396   2.101   5.045  0.00  0.00    +0.000 C 
ATOM     20  C   UNL     1      10.899   2.663   6.363  0.00  0.00    +0.000 C 
ENDBRANCH  18  19
ENDBRANCH  17  18
ENDBRANCH  16  17
ENDBRANCH  15  16
ENDBRANCH  13  15
ENDBRANCH  12  13
ENDBRANCH  11  12
ENDBRANCH   1  11
BRANCH   1  21
ATOM     21  C   UNL     1       8.994  -5.876  -0.811  0.00  0.00    +0.000 C 
BRANCH  21  22
ATOM     22  O   UNL     1       8.470  -4.529  -0.704  0.00  0.00    +0.000 OA
BRANCH  22  23
ATOM     23  C   UNL     1       7.115  -4.430  -0.632  0.00  0.00    +0.000 C 
ATOM     24  O   UNL     1       6.354  -5.388  -0.710  0.00  0.00    +0.000 OA
BRANCH  23  25
ATOM     25  C   UNL     1       6.671  -2.989  -0.436  0.00  0.00    +0.000 C 
BRANCH  25  26
ATOM     26  C   UNL     1       5.141  -2.907  -0.422  0.00  0.00    +0.000 C 
BRANCH  26  27
ATOM     27  C   UNL     1       4.623  -1.483  -0.242  0.00  0.00    +0.000 C 
BRANCH  27  28
ATOM     28  C   UNL     1       3.095  -1.469  -0.240  0.00  0.00    +0.000 C 
BRANCH  28  30
ATOM     29  C   UNL     1       1.042  -0.044  -0.061  0.00  0.00    +0.000 C 
ATOM     30  C   UNL     1       2.560  -0.052  -0.062  0.00  0.00    +0.000 C 
ENDBRANCH  28  30
ENDBRANCH  27  28
ENDBRANCH  26  27
ENDBRANCH  25  26
ENDBRANCH  23  25
ENDBRANCH  22  23
ENDBRANCH  21  22
ENDBRANCH   1  21
TORSDOF 23
