REMARK  Name = Trihexyphenidyl
REMARK  6 active torsions:
REMARK  status: ('A' for Active; 'I' for Inactive)
REMARK    1  A    between atoms: O_1  and  C_2
REMARK    2  A    between atoms: C_2  and  C_3
REMARK    3  A    between atoms: C_2  and  C_11
REMARK    4  A    between atoms: C_2  and  C_17
REMARK    5  A    between atoms: C_3  and  C_4
REMARK    6  A    between atoms: C_4  and  N_5
REMARK                            x       y       z     vdW  Elec       q    Type
REMARK                         _______ _______ _______ _____ _____    ______ ____
ROOT
ATOM      1  C   UNL     1       2.455  -0.126  -0.020  0.00  0.00    +0.000 C 
ENDROOT
BRANCH   1   2
ATOM      2  C   UNL     1       2.923   0.232   1.427  0.00  0.00    +0.000 C 
ATOM      3  C   UNL     1       2.535   1.676   1.833  0.00  0.00    +0.000 C 
ATOM      4  C   UNL     1       2.869   1.999   3.279  0.00  0.00    +0.000 C 
ATOM      5  C   UNL     1       2.251   0.980   4.222  0.00  0.00    +0.000 C 
ATOM      6  C   UNL     1       2.715  -0.425   3.876  0.00  0.00    +0.000 C 
ATOM      7  C   UNL     1       2.361  -0.779   2.444  0.00  0.00    +0.000 C 
ENDBRANCH   1   2
BRANCH   1   8
ATOM      8  C   UNL     1       2.960  -1.511  -0.420  0.00  0.00    +0.000 A 
ATOM      9  C   UNL     1       2.142  -2.635  -0.221  0.00  0.00    +0.000 A 
ATOM     10  C   UNL     1       2.629  -3.916  -0.473  0.00  0.00    +0.000 A 
ATOM     11  C   UNL     1       3.898  -4.084  -1.009  0.00  0.00    +0.000 A 
ATOM     12  C   UNL     1       4.707  -2.979  -1.265  0.00  0.00    +0.000 A 
ATOM     13  C   UNL     1       4.247  -1.703  -0.944  0.00  0.00    +0.000 A 
ENDBRANCH   1   8
BRANCH   1  14
ATOM     14  O   UNL     1       1.016  -0.124  -0.059  0.00  0.00    +0.000 OA
ATOM     15  H   UNL     1       0.703   0.767   0.164  0.00  0.00    +0.000 HD
ENDBRANCH   1  14
BRANCH   1  16
ATOM     16  C   UNL     1       2.932   0.941  -1.006  0.00  0.00    +0.000 C 
BRANCH  16  17
ATOM     17  C   UNL     1       2.439   0.675  -2.423  0.00  0.00    +0.000 C 
BRANCH  17  18
ATOM     18  N   UNL     1       2.886   1.717  -3.356  0.00  0.00    +0.000 NA
ATOM     19  C   UNL     1       2.238   1.452  -4.649  0.00  0.00    +0.000 C 
ATOM     20  C   UNL     1       2.643   2.490  -5.685  0.00  0.00    +0.000 C 
ATOM     21  C   UNL     1       2.337   3.901  -5.196  0.00  0.00    +0.000 C 
ATOM     22  C   UNL     1       2.966   4.143  -3.836  0.00  0.00    +0.000 C 
ATOM     23  C   UNL     1       2.557   3.060  -2.858  0.00  0.00    +0.000 C 
ENDBRANCH  17  18
ENDBRANCH  16  17
ENDBRANCH   1  16
TORSDOF 6
