REMARK  Name = Trilostane
REMARK  5 active torsions:
REMARK  status: ('A' for Active; 'I' for Inactive)
REMARK    1  A    between atoms: C_5  and  O_6
REMARK    2  A    between atoms: C_7  and  C_8
REMARK    3  A    between atoms: C_20  and  O_21
REMARK    4  A    between atoms: C_22  and  C_26
REMARK    5  A    between atoms: C_24  and  C_25
REMARK                            x       y       z     vdW  Elec       q    Type
REMARK                         _______ _______ _______ _____ _____    ______ ____
ROOT
ATOM      1  C   UNL     1       1.597  -0.237   0.424  0.00  0.00    +0.000 C 
ATOM      2  C   UNL     1       2.184  -0.180   1.691  0.00  0.00    +0.000 C 
ATOM      3  C   UNL     1       3.262  -0.430   0.680  0.00  0.00    +0.000 C 
ATOM      4  C   UNL     1       2.533  -0.739  -1.229  0.00  0.00    +0.000 C 
ATOM      5  C   UNL     1       2.581  -1.668  -0.234  0.00  0.00    +0.000 C 
ATOM      6  C   UNL     1       1.883  -2.881   0.122  0.00  0.00    +0.000 C 
ATOM      7  C   UNL     1       4.347  -1.649  -0.744  0.00  0.00    +0.000 C 
ATOM      8  C   UNL     1       4.758  -0.102  -1.408  0.00  0.00    +0.000 C 
ATOM      9  C   UNL     1       4.060   1.270  -0.708  0.00  0.00    +0.000 C 
ATOM     10  C   UNL     1       2.132   1.230  -0.099  0.00  0.00    +0.000 C 
ATOM     11  C   UNL     1       1.457   2.823   0.550  0.00  0.00    +0.000 C 
ATOM     12  C   UNL     1       2.149   4.548  -0.198  0.00  0.00    +0.000 C 
ATOM     13  C   UNL     1       3.316   4.091  -1.123  0.00  0.00    +0.000 C 
ATOM     14  O   UNL     1       3.272   3.262  -0.143  0.00  0.00    +0.000 OA
ATOM     15  C   UNL     1       2.052   3.604  -1.604  0.00  0.00    +0.000 C 
ATOM     16  C   UNL     1       1.964   2.720  -2.685  0.00  0.00    +0.000 C 
ATOM     17  C   UNL     1       2.698   2.796  -3.734  0.00  0.00    +0.000 C 
ATOM     18  C   UNL     1       4.155   2.642  -3.345  0.00  0.00    +0.000 C 
ATOM     19  C   UNL     1       4.474   2.784  -1.716  0.00  0.00    +0.000 C 
ATOM     20  C   UNL     1       6.020   2.771  -1.548  0.00  0.00    +0.000 C 
ENDROOT
BRANCH   4  21
ATOM     21  O   UNL     1       1.163  -1.037  -1.771  0.00  0.00    +0.000 OA
ATOM     22  H   UNL     1       0.712  -0.298  -2.228  0.00  0.00    +0.000 HD
ENDBRANCH   4  21
BRANCH  16  23
ATOM     23  O   UNL     1       2.507   1.666  -2.122  0.00  0.00    +0.000 OA
ATOM     24  H   UNL     1       2.794   2.155  -1.285  0.00  0.00    +0.000 HD
ENDBRANCH  16  23
BRANCH  17  25
ATOM     25  C   UNL     1       1.848   2.531  -4.857  0.00  0.00    +0.000 C 
ATOM     26  N   UNL     1       0.959   2.485  -5.525  0.00  0.00    +0.000 NA
ENDBRANCH  17  25
TORSDOF 3
