REMARK  Name = Trilaciclib
REMARK  2 active torsions:
REMARK  status: ('A' for Active; 'I' for Inactive)
REMARK    1  A    between atoms: C_1  and  N_2
REMARK    2  A    between atoms: N_5  and  C_8
REMARK                            x       y       z     vdW  Elec       q    Type
REMARK                         _______ _______ _______ _____ _____    ______ ____
ROOT
ATOM      1  C   UNL     1      -3.083  -0.021   0.774  0.00  0.00    +0.000 A 
ATOM      2  C   UNL     1      -4.222   0.581   0.236  0.00  0.00    +0.000 A 
ATOM      3  N   UNL     1      -5.475   0.595   0.807  0.00  0.00    +0.000 NA
ATOM      4  C   UNL     1      -5.625  -0.011   2.008  0.00  0.00    +0.000 A 
ATOM      5  N   UNL     1      -6.888  -0.055   2.624  0.00  0.00    +0.000 N 
ATOM      6  C   UNL     1      -7.201  -0.649   3.851  0.00  0.00    +0.000 A 
ATOM      7  N   UNL     1      -8.046  -1.724   3.878  0.00  0.00    +0.000 NA
ATOM      8  C   UNL     1      -8.051  -2.397   5.061  0.00  0.00    +0.000 A 
ATOM      9  C   UNL     1      -7.350  -1.954   6.191  0.00  0.00    +0.000 A 
ATOM     10  C   UNL     1      -7.622  -2.816   7.258  0.00  0.00    +0.000 A 
ATOM     11  C   UNL     1      -8.502  -3.776   6.804  0.00  0.00    +0.000 A 
ATOM     12  N   UNL     1      -8.740  -3.601   5.401  0.00  0.00    +0.000 N 
ATOM     13  C   UNL     1     -10.025  -4.191   4.816  0.00  0.00    +0.000 C 
ATOM     14  C   UNL     1     -10.911  -2.907   4.870  0.00  0.00    +0.000 C 
ATOM     15  C   UNL     1     -12.038  -3.386   4.140  0.00  0.00    +0.000 C 
ATOM     16  C   UNL     1     -12.968  -3.437   3.059  0.00  0.00    +0.000 C 
ATOM     17  C   UNL     1     -12.247  -4.853   2.612  0.00  0.00    +0.000 C 
ATOM     18  C   UNL     1     -10.457  -5.005   3.223  0.00  0.00    +0.000 C 
ATOM     19  C   UNL     1     -10.418  -5.381   5.780  0.00  0.00    +0.000 C 
ATOM     20  N   UNL     1     -10.432  -5.011   7.160  0.00  0.00    +0.000 N 
ATOM     21  C   UNL     1      -9.217  -4.667   7.700  0.00  0.00    +0.000 C 
ATOM     22  O   UNL     1      -8.883  -4.983   8.814  0.00  0.00    +0.000 OA
ATOM     23  C   UNL     1      -6.590  -0.796   6.087  0.00  0.00    +0.000 A 
ATOM     24  N   UNL     1      -6.509  -0.168   4.908  0.00  0.00    +0.000 NA
ATOM     25  C   UNL     1      -4.534  -0.635   2.608  0.00  0.00    +0.000 A 
ATOM     26  C   UNL     1      -3.283  -0.650   1.993  0.00  0.00    +0.000 A 
ATOM     27  H   UNL     1      -7.651   0.319   2.090  0.00  0.00    +0.000 HD
ATOM     28  H   UNL     1     -11.143  -5.336   7.800  0.00  0.00    +0.000 HD
ENDROOT
BRANCH   1  33
ATOM     29  C   UNL     1       2.438   0.002   0.055  0.00  0.00    +0.000 C 
ATOM     30  N   UNL     1       1.023  -0.001  -0.299  0.00  0.00    +0.000 NA
ATOM     31  C   UNL     1       0.335   1.200   0.232  0.00  0.00    +0.000 C 
ATOM     32  C   UNL     1      -1.164   1.248  -0.178  0.00  0.00    +0.000 C 
ATOM     33  N   UNL     1      -1.828   0.000   0.214  0.00  0.00    +0.000 N 
ATOM     34  C   UNL     1      -1.144  -1.244  -0.168  0.00  0.00    +0.000 C 
ATOM     35  C   UNL     1       0.342  -1.194   0.255  0.00  0.00    +0.000 C 
ENDBRANCH   1  33
TORSDOF 1
