REMARK  Name = Trimetazidine
REMARK  8 active torsions:
REMARK  status: ('A' for Active; 'I' for Inactive)
REMARK    1  A    between atoms: C_1  and  O_2
REMARK    2  A    between atoms: O_2  and  C_3
REMARK    3  A    between atoms: C_4  and  O_5
REMARK    4  A    between atoms: O_5  and  C_6
REMARK    5  A    between atoms: C_7  and  O_8
REMARK    6  A    between atoms: O_8  and  C_9
REMARK    7  A    between atoms: C_10  and  C_11
REMARK    8  A    between atoms: C_11  and  N_12
REMARK                            x       y       z     vdW  Elec       q    Type
REMARK                         _______ _______ _______ _____ _____    ______ ____
ROOT
ATOM      1  C   UNL     1       3.147   0.948   0.061  0.00  0.00    +0.000 A 
ATOM      2  C   UNL     1       4.344   1.341  -0.637  0.00  0.00    +0.000 A 
ATOM      3  C   UNL     1       5.196   2.496  -0.241  0.00  0.00    +0.000 A 
ATOM      4  C   UNL     1       4.725   3.349   0.733  0.00  0.00    +0.000 A 
ATOM      5  C   UNL     1       3.583   2.827   1.233  0.00  0.00    +0.000 A 
ATOM      6  C   UNL     1       2.777   1.748   1.078  0.00  0.00    +0.000 A 
ENDROOT
BRANCH   1   8
ATOM      7  C   UNL     1       0.967  -0.035   0.019  0.00  0.00    +0.000 C 
ATOM      8  O   UNL     1       2.394  -0.177  -0.121  0.00  0.00    +0.000 OA
ENDBRANCH   1   8
BRANCH   2   9
ATOM      9  O   UNL     1       4.730   0.708  -1.804  0.00  0.00    +0.000 OA
ATOM     10  C   UNL     1       3.754  -0.195  -2.313  0.00  0.00    +0.000 C 
ENDBRANCH   2   9
BRANCH   3  11
ATOM     11  O   UNL     1       6.422   2.662  -0.842  0.00  0.00    +0.000 OA
ATOM     12  C   UNL     1       7.311   3.594  -0.213  0.00  0.00    +0.000 C 
ENDBRANCH   3  11
BRANCH   4  13
ATOM     13  C   UNL     1       5.178   4.702   1.331  0.00  0.00    +0.000 C 
BRANCH  13  14
ATOM     14  N   UNL     1       4.499   5.389   2.488  0.00  0.00    +0.000 NA
ATOM     15  C   UNL     1       3.160   5.961   2.254  0.00  0.00    +0.000 C 
ATOM     16  C   UNL     1       2.006   4.945   2.310  0.00  0.00    +0.000 C 
ATOM     17  N   UNL     1       2.103   3.992   3.514  0.00  0.00    +0.000 NA
ATOM     18  C   UNL     1       3.512   3.584   3.979  0.00  0.00    +0.000 C 
ATOM     19  C   UNL     1       4.558   4.700   3.795  0.00  0.00    +0.000 C 
ATOM     20  H   UNL     1       1.612   3.131   3.260  0.00  0.00    +0.000 HD
ENDBRANCH  13  14
ENDBRANCH   4  13
TORSDOF 5
