REMARK  Name = Trimipramine
REMARK  7 active torsions:
REMARK  status: ('A' for Active; 'I' for Inactive)
REMARK    1  A    between atoms: C_1  and  C_2
REMARK    2  A    between atoms: C_2  and  C_3
REMARK    3  A    between atoms: C_2  and  C_7
REMARK    4  A    between atoms: C_3  and  N_4
REMARK    5  A    between atoms: N_4  and  C_5
REMARK    6  A    between atoms: N_4  and  C_6
REMARK    7  A    between atoms: C_7  and  N_8
REMARK                            x       y       z     vdW  Elec       q    Type
REMARK                         _______ _______ _______ _____ _____    ______ ____
ROOT
ATOM      1  N   UNL     1       4.575   0.059   1.452  0.00  0.00    +0.000 N 
ATOM      2  C   UNL     1       5.233  -1.179   1.374  0.00  0.00    +0.000 A 
ATOM      3  C   UNL     1       4.935  -2.162   2.339  0.00  0.00    +0.000 A 
ATOM      4  C   UNL     1       5.645  -3.357   2.416  0.00  0.00    +0.000 A 
ATOM      5  C   UNL     1       6.674  -3.603   1.517  0.00  0.00    +0.000 A 
ATOM      6  C   UNL     1       6.986  -2.653   0.552  0.00  0.00    +0.000 A 
ATOM      7  C   UNL     1       6.291  -1.433   0.466  0.00  0.00    +0.000 A 
ATOM      8  C   UNL     1       6.785  -0.501  -0.628  0.00  0.00    +0.000 C 
ATOM      9  C   UNL     1       5.991   0.759  -0.899  0.00  0.00    +0.000 C 
ATOM     10  C   UNL     1       5.974   1.676   0.304  0.00  0.00    +0.000 A 
ATOM     11  C   UNL     1       6.655   2.893   0.305  0.00  0.00    +0.000 A 
ATOM     12  C   UNL     1       6.694   3.681   1.457  0.00  0.00    +0.000 A 
ATOM     13  C   UNL     1       6.029   3.264   2.612  0.00  0.00    +0.000 A 
ATOM     14  C   UNL     1       5.299   2.082   2.600  0.00  0.00    +0.000 A 
ATOM     15  C   UNL     1       5.258   1.279   1.450  0.00  0.00    +0.000 A 
ENDROOT
BRANCH   1  16
ATOM     16  C   UNL     1       3.100   0.114   1.484  0.00  0.00    +0.000 C 
BRANCH  16  18
ATOM     17  C   UNL     1       0.941  -0.088   0.286  0.00  0.00    +0.000 C 
ATOM     18  C   UNL     1       2.445   0.131   0.073  0.00  0.00    +0.000 C 
BRANCH  18  19
ATOM     19  C   UNL     1       2.701   1.466  -0.681  0.00  0.00    +0.000 C 
BRANCH  19  20
ATOM     20  N   UNL     1       2.397   1.477  -2.130  0.00  0.00    +0.000 NA
ATOM     21  C   UNL     1       0.962   1.548  -2.371  0.00  0.00    +0.000 C 
ATOM     22  C   UNL     1       3.032   2.643  -2.762  0.00  0.00    +0.000 C 
ENDBRANCH  19  20
ENDBRANCH  18  19
ENDBRANCH  16  18
ENDBRANCH   1  16
TORSDOF 4
