REMARK  Name = Trimethobenzamide
REMARK  15 active torsions:
REMARK  status: ('A' for Active; 'I' for Inactive)
REMARK    1  A    between atoms: C_1  and  O_2
REMARK    2  A    between atoms: O_2  and  C_3
REMARK    3  A    between atoms: C_5  and  C_13
REMARK    4  A    between atoms: C_7  and  O_8
REMARK    5  A    between atoms: O_8  and  C_9
REMARK    6  A    between atoms: C_10  and  O_11
REMARK    7  A    between atoms: O_11  and  C_12
REMARK    8  A    between atoms: N_15  and  C_16
REMARK    9  A    between atoms: C_16  and  C_17
REMARK   10  A    between atoms: C_20  and  O_21
REMARK   11  A    between atoms: O_21  and  C_22
REMARK   12  A    between atoms: C_22  and  C_23
REMARK   13  A    between atoms: C_23  and  N_24
REMARK   14  A    between atoms: N_24  and  C_25
REMARK   15  A    between atoms: N_24  and  C_26
REMARK                            x       y       z     vdW  Elec       q    Type
REMARK                         _______ _______ _______ _____ _____    ______ ____
ROOT
ATOM      1  C   UNL     1       6.464   2.282  -1.598  0.00  0.00    +0.000 C 
ATOM      2  O   UNL     1       6.844   1.261  -2.138  0.00  0.00    +0.000 OA
ATOM      3  N   UNL     1       7.281   3.402  -1.489  0.00  0.00    +0.000 N 
ATOM      4  H   UNL     1       6.998   4.213  -0.966  0.00  0.00    +0.000 HD
ENDROOT
BRANCH   1   7
ATOM      5  C   UNL     1       3.080   1.086  -0.197  0.00  0.00    +0.000 A 
ATOM      6  C   UNL     1       4.278   1.176  -0.955  0.00  0.00    +0.000 A 
ATOM      7  C   UNL     1       5.085   2.342  -0.970  0.00  0.00    +0.000 A 
ATOM      8  C   UNL     1       4.617   3.477  -0.310  0.00  0.00    +0.000 A 
ATOM      9  C   UNL     1       3.446   3.419   0.458  0.00  0.00    +0.000 A 
ATOM     10  C   UNL     1       2.684   2.220   0.539  0.00  0.00    +0.000 A 
BRANCH   5  12
ATOM     11  C   UNL     1       1.257  -0.549  -0.353  0.00  0.00    +0.000 C 
ATOM     12  O   UNL     1       2.610  -0.205  -0.049  0.00  0.00    +0.000 OA
ENDBRANCH   5  12
BRANCH   9  13
ATOM     13  O   UNL     1       3.194   4.600   1.141  0.00  0.00    +0.000 OA
ATOM     14  C   UNL     1       2.082   4.642   2.040  0.00  0.00    +0.000 C 
ENDBRANCH   9  13
BRANCH  10  15
ATOM     15  O   UNL     1       1.687   2.334   1.450  0.00  0.00    +0.000 OA
ATOM     16  C   UNL     1       0.679   1.397   1.594  0.00  0.00    +0.000 C 
ENDBRANCH  10  15
ENDBRANCH   1   7
BRANCH   3  17
ATOM     17  C   UNL     1       8.646   3.413  -2.007  0.00  0.00    +0.000 C 
BRANCH  17  18
ATOM     18  C   UNL     1       9.305   4.756  -1.778  0.00  0.00    +0.000 A 
ATOM     19  C   UNL     1      10.528   4.877  -1.103  0.00  0.00    +0.000 A 
ATOM     20  C   UNL     1      11.052   6.142  -0.799  0.00  0.00    +0.000 A 
ATOM     21  C   UNL     1      10.415   7.299  -1.247  0.00  0.00    +0.000 A 
ATOM     22  C   UNL     1       9.213   7.181  -1.948  0.00  0.00    +0.000 A 
ATOM     23  C   UNL     1       8.672   5.924  -2.220  0.00  0.00    +0.000 A 
BRANCH  21  24
ATOM     24  O   UNL     1      11.065   8.478  -0.973  0.00  0.00    +0.000 OA
BRANCH  24  25
ATOM     25  C   UNL     1      10.445   9.642  -1.527  0.00  0.00    +0.000 C 
BRANCH  25  26
ATOM     26  C   UNL     1      11.263  10.901  -1.208  0.00  0.00    +0.000 C 
BRANCH  26  27
ATOM     27  N   UNL     1      10.631  12.137  -1.721  0.00  0.00    +0.000 NA
ATOM     28  C   UNL     1       9.307  12.351  -1.130  0.00  0.00    +0.000 C 
ATOM     29  C   UNL     1      11.482  13.293  -1.425  0.00  0.00    +0.000 C 
ENDBRANCH  26  27
ENDBRANCH  25  26
ENDBRANCH  24  25
ENDBRANCH  21  24
ENDBRANCH  17  18
ENDBRANCH   3  17
TORSDOF 10
