REMARK  Name = Trimethadione
REMARK  3 active torsions:
REMARK  status: ('A' for Active; 'I' for Inactive)
REMARK    1  A    between atoms: C_1  and  N_2
REMARK    2  A    between atoms: C_6  and  C_7
REMARK    3  A    between atoms: C_6  and  C_8
REMARK                            x       y       z     vdW  Elec       q    Type
REMARK                         _______ _______ _______ _____ _____    ______ ____
ROOT
ATOM      1  C   UNL     1       1.075  -0.002  -0.014  0.00  0.00    +0.000 C 
ATOM      2  N   UNL     1       2.512  -0.025  -0.166  0.00  0.00    +0.000 N 
ATOM      3  C   UNL     1       3.320   1.047  -0.133  0.00  0.00    +0.000 C 
ATOM      4  O   UNL     1       3.083   2.137   0.369  0.00  0.00    +0.000 OA
ATOM      5  O   UNL     1       4.512   0.735  -0.723  0.00  0.00    +0.000 OA
ATOM      6  C   UNL     1       4.662  -0.691  -0.672  0.00  0.00    +0.000 C 
ATOM      7  C   UNL     1       5.790  -0.982   0.299  0.00  0.00    +0.000 C 
ATOM      8  C   UNL     1       4.973  -1.311  -2.031  0.00  0.00    +0.000 C 
ATOM      9  C   UNL     1       3.286  -1.136  -0.215  0.00  0.00    +0.000 C 
ATOM     10  O   UNL     1       2.951  -2.280   0.050  0.00  0.00    +0.000 OA
ENDROOT
TORSDOF 0
