REMARK  Name = Trimethoprim
REMARK  8 active torsions:
REMARK  status: ('A' for Active; 'I' for Inactive)
REMARK    1  A    between atoms: C_1  and  O_2
REMARK    2  A    between atoms: O_2  and  C_3
REMARK    3  A    between atoms: C_5  and  C_6
REMARK    4  A    between atoms: C_6  and  C_7
REMARK    5  A    between atoms: C_16  and  O_17
REMARK    6  A    between atoms: O_17  and  C_18
REMARK    7  A    between atoms: C_19  and  O_20
REMARK    8  A    between atoms: O_20  and  C_21
REMARK                            x       y       z     vdW  Elec       q    Type
REMARK                         _______ _______ _______ _____ _____    ______ ____
ROOT
ATOM      1  C   UNL     1       6.198  -2.590  -1.491  0.00  0.00    +0.000 C 
ENDROOT
BRANCH   1   2
ATOM      2  C   UNL     1       7.015  -2.947  -2.714  0.00  0.00    +0.000 A 
ATOM      3  C   UNL     1       7.359  -4.255  -2.974  0.00  0.00    +0.000 A 
ATOM      4  N   UNL     1       7.958  -4.662  -4.111  0.00  0.00    +0.000 NA
ATOM      5  C   UNL     1       8.193  -3.716  -5.017  0.00  0.00    +0.000 A 
ATOM      6  N   UNL     1       8.763  -4.115  -6.200  0.00  0.00    +0.000 N 
ATOM      7  N   UNL     1       7.923  -2.419  -4.868  0.00  0.00    +0.000 NA
ATOM      8  C   UNL     1       7.362  -2.039  -3.705  0.00  0.00    +0.000 A 
ATOM      9  N   UNL     1       7.205  -0.663  -3.532  0.00  0.00    +0.000 N 
ATOM     10  H   UNL     1       9.034  -5.076  -6.285  0.00  0.00    +0.000 HD
ATOM     11  H   UNL     1       8.944  -3.413  -6.891  0.00  0.00    +0.000 HD
ATOM     12  H   UNL     1       7.264  -0.209  -4.440  0.00  0.00    +0.000 HD
ATOM     13  H   UNL     1       6.379  -0.381  -3.019  0.00  0.00    +0.000 HD
ENDBRANCH   1   2
BRANCH   1  16
ATOM     14  C   UNL     1       2.930  -0.604  -1.009  0.00  0.00    +0.000 A 
ATOM     15  C   UNL     1       4.053  -1.424  -0.739  0.00  0.00    +0.000 A 
ATOM     16  C   UNL     1       4.811  -2.005  -1.773  0.00  0.00    +0.000 A 
ATOM     17  C   UNL     1       4.324  -1.887  -3.080  0.00  0.00    +0.000 A 
ATOM     18  C   UNL     1       3.283  -1.015  -3.389  0.00  0.00    +0.000 A 
ATOM     19  C   UNL     1       2.591  -0.346  -2.356  0.00  0.00    +0.000 A 
BRANCH  14  21
ATOM     20  C   UNL     1       1.110  -0.068   0.487  0.00  0.00    +0.000 C 
ATOM     21  O   UNL     1       2.476   0.083   0.098  0.00  0.00    +0.000 OA
ENDBRANCH  14  21
BRANCH  18  22
ATOM     22  O   UNL     1       3.133  -0.853  -4.752  0.00  0.00    +0.000 OA
ATOM     23  C   UNL     1       2.130   0.039  -5.225  0.00  0.00    +0.000 C 
ENDBRANCH  18  22
BRANCH  19  24
ATOM     24  O   UNL     1       1.742   0.591  -2.849  0.00  0.00    +0.000 OA
ATOM     25  C   UNL     1       0.717   1.126  -2.080  0.00  0.00    +0.000 C 
ENDBRANCH  19  24
ENDBRANCH   1  16
TORSDOF 5
