REMARK  Name = Trimetrexate
REMARK  10 active torsions:
REMARK  status: ('A' for Active; 'I' for Inactive)
REMARK    1  A    between atoms: C_1  and  O_2
REMARK    2  A    between atoms: O_2  and  C_3
REMARK    3  A    between atoms: C_5  and  N_6
REMARK    4  A    between atoms: N_6  and  C_7
REMARK    5  A    between atoms: C_7  and  C_8
REMARK    6  A    between atoms: C_9  and  C_10
REMARK    7  A    between atoms: C_22  and  O_23
REMARK    8  A    between atoms: O_23  and  C_24
REMARK    9  A    between atoms: C_25  and  O_26
REMARK   10  A    between atoms: O_26  and  C_27
REMARK                            x       y       z     vdW  Elec       q    Type
REMARK                         _______ _______ _______ _____ _____    ______ ____
ROOT
ATOM      1  C   UNL     1       8.549   3.708  -0.123  0.00  0.00    +0.000 A 
ATOM      2  C   UNL     1       9.467   2.664  -0.504  0.00  0.00    +0.000 A 
ATOM      3  C   UNL     1       8.931   1.237  -0.440  0.00  0.00    +0.000 C 
ATOM      4  C   UNL     1      10.875   3.065  -1.012  0.00  0.00    +0.000 A 
ATOM      5  C   UNL     1      10.832   4.394  -1.380  0.00  0.00    +0.000 A 
ATOM      6  C   UNL     1      10.179   5.316  -0.651  0.00  0.00    +0.000 A 
ATOM      7  C   UNL     1       8.975   5.029  -0.157  0.00  0.00    +0.000 A 
ATOM      8  N   UNL     1      11.493   4.922  -2.357  0.00  0.00    +0.000 NA
ATOM      9  C   UNL     1      12.753   4.934  -2.103  0.00  0.00    +0.000 A 
ATOM     10  N   UNL     1      13.040   6.246  -1.685  0.00  0.00    +0.000 N 
ATOM     11  N   UNL     1      13.248   3.783  -1.644  0.00  0.00    +0.000 NA
ATOM     12  C   UNL     1      12.306   2.796  -1.318  0.00  0.00    +0.000 A 
ATOM     13  N   UNL     1      12.920   1.578  -1.154  0.00  0.00    +0.000 N 
ATOM     14  H   UNL     1      12.061   6.567  -1.725  0.00  0.00    +0.000 HD
ATOM     15  H   UNL     1      13.387   6.875  -2.396  0.00  0.00    +0.000 HD
ATOM     16  H   UNL     1      13.579   0.832  -1.167  0.00  0.00    +0.000 HD
ATOM     17  H   UNL     1      13.788   2.145  -1.295  0.00  0.00    +0.000 HD
ENDROOT
BRANCH   1  18
ATOM     18  C   UNL     1       7.181   3.633   0.493  0.00  0.00    +0.000 C 
BRANCH  18  19
ATOM     19  N   UNL     1       6.207   2.984  -0.353  0.00  0.00    +0.000 N 
ATOM     20  H   UNL     1       6.585   2.364  -1.056  0.00  0.00    +0.000 HD
BRANCH  19  23
ATOM     21  C   UNL     1       3.037   1.111   0.283  0.00  0.00    +0.000 A 
ATOM     22  C   UNL     1       4.227   1.578  -0.322  0.00  0.00    +0.000 A 
ATOM     23  C   UNL     1       5.015   2.587   0.258  0.00  0.00    +0.000 A 
ATOM     24  C   UNL     1       4.539   3.217   1.410  0.00  0.00    +0.000 A 
ATOM     25  C   UNL     1       3.375   2.788   2.037  0.00  0.00    +0.000 A 
ATOM     26  C   UNL     1       2.627   1.721   1.485  0.00  0.00    +0.000 A 
BRANCH  21  28
ATOM     27  C   UNL     1       1.240  -0.211  -0.723  0.00  0.00    +0.000 C 
ATOM     28  O   UNL     1       2.578  -0.082  -0.242  0.00  0.00    +0.000 OA
ENDBRANCH  21  28
BRANCH  25  29
ATOM     29  O   UNL     1       3.114   3.472   3.212  0.00  0.00    +0.000 OA
ATOM     30  C   UNL     1       1.971   3.077   3.969  0.00  0.00    +0.000 C 
ENDBRANCH  25  29
BRANCH  26  31
ATOM     31  O   UNL     1       1.610   1.368   2.307  0.00  0.00    +0.000 OA
ATOM     32  C   UNL     1       0.606   0.511   1.904  0.00  0.00    +0.000 C 
ENDBRANCH  26  31
ENDBRANCH  19  23
ENDBRANCH  18  19
ENDBRANCH   1  18
TORSDOF 6
