REMARK  Name = Trimebutine
REMARK  16 active torsions:
REMARK  status: ('A' for Active; 'I' for Inactive)
REMARK    1  A    between atoms: C_1  and  C_2
REMARK    2  A    between atoms: C_2  and  C_3
REMARK    3  A    between atoms: C_3  and  C_4
REMARK    4  A    between atoms: C_3  and  N_20
REMARK    5  A    between atoms: C_3  and  C_23
REMARK    6  A    between atoms: C_4  and  O_5
REMARK    7  A    between atoms: O_5  and  C_6
REMARK    8  A    between atoms: C_6  and  C_8
REMARK    9  A    between atoms: C_10  and  O_11
REMARK   10  A    between atoms: O_11  and  C_12
REMARK   11  A    between atoms: C_13  and  O_14
REMARK   12  A    between atoms: O_14  and  C_15
REMARK   13  A    between atoms: C_16  and  O_17
REMARK   14  A    between atoms: O_17  and  C_18
REMARK   15  A    between atoms: N_20  and  C_21
REMARK   16  A    between atoms: N_20  and  C_22
REMARK                            x       y       z     vdW  Elec       q    Type
REMARK                         _______ _______ _______ _____ _____    ______ ____
ROOT
ATOM      1  O   UNL     1       2.848  -2.040   1.985  0.00  0.00    +0.000 OA
ENDROOT
BRANCH   1   2
ATOM      2  C   UNL     1       2.643  -3.021   2.908  0.00  0.00    +0.000 C 
ATOM      3  O   UNL     1       2.088  -4.079   2.702  0.00  0.00    +0.000 OA
BRANCH   2   4
ATOM      4  C   UNL     1       3.176  -2.619   4.242  0.00  0.00    +0.000 A 
ATOM      5  C   UNL     1       3.582  -3.595   5.162  0.00  0.00    +0.000 A 
ATOM      6  C   UNL     1       3.815  -3.252   6.508  0.00  0.00    +0.000 A 
ATOM      7  C   UNL     1       3.778  -1.896   6.902  0.00  0.00    +0.000 A 
ATOM      8  C   UNL     1       3.383  -0.923   5.965  0.00  0.00    +0.000 A 
ATOM      9  C   UNL     1       3.102  -1.286   4.643  0.00  0.00    +0.000 A 
BRANCH   6  10
ATOM     10  O   UNL     1       4.012  -4.337   7.339  0.00  0.00    +0.000 OA
ATOM     11  C   UNL     1       3.989  -4.097   8.749  0.00  0.00    +0.000 C 
ENDBRANCH   6  10
BRANCH   7  12
ATOM     12  O   UNL     1       4.153  -1.630   8.193  0.00  0.00    +0.000 OA
ATOM     13  C   UNL     1       4.201  -0.308   8.694  0.00  0.00    +0.000 C 
ENDBRANCH   7  12
BRANCH   8  14
ATOM     14  O   UNL     1       3.229   0.354   6.425  0.00  0.00    +0.000 OA
ATOM     15  C   UNL     1       2.772   1.351   5.535  0.00  0.00    +0.000 C 
ENDBRANCH   8  14
ENDBRANCH   2   4
ENDBRANCH   1   2
BRANCH   1  16
ATOM     16  C   UNL     1       2.539  -2.427   0.625  0.00  0.00    +0.000 C 
BRANCH  16  17
ATOM     17  C   UNL     1       3.022  -1.383  -0.463  0.00  0.00    +0.000 C 
BRANCH  17  18
ATOM     18  C   UNL     1       4.595  -1.281  -0.471  0.00  0.00    +0.000 A 
ATOM     19  C   UNL     1       5.371  -1.438   0.691  0.00  0.00    +0.000 A 
ATOM     20  C   UNL     1       6.754  -1.264   0.685  0.00  0.00    +0.000 A 
ATOM     21  C   UNL     1       7.418  -1.039  -0.511  0.00  0.00    +0.000 A 
ATOM     22  C   UNL     1       6.690  -0.908  -1.687  0.00  0.00    +0.000 A 
ATOM     23  C   UNL     1       5.296  -0.981  -1.658  0.00  0.00    +0.000 A 
ENDBRANCH  17  18
BRANCH  17  24
ATOM     24  N   UNL     1       2.539  -1.771  -1.852  0.00  0.00    +0.000 NA
ATOM     25  C   UNL     1       3.057  -3.075  -2.296  0.00  0.00    +0.000 C 
ATOM     26  C   UNL     1       1.091  -1.816  -2.049  0.00  0.00    +0.000 C 
ENDBRANCH  17  24
BRANCH  17  28
ATOM     27  C   UNL     1       1.036   0.272   0.156  0.00  0.00    +0.000 C 
ATOM     28  C   UNL     1       2.537   0.061  -0.047  0.00  0.00    +0.000 C 
ENDBRANCH  17  28
ENDBRANCH  16  17
ENDBRANCH   1  16
TORSDOF 10
