REMARK  Name = Trimethaphan
REMARK  4 active torsions:
REMARK  status: ('A' for Active; 'I' for Inactive)
REMARK    1  A    between atoms: N_3  and  C_4
REMARK    2  A    between atoms: C_4  and  C_5
REMARK    3  A    between atoms: N_19  and  C_20
REMARK    4  A    between atoms: C_20  and  C_21
REMARK                            x       y       z     vdW  Elec       q    Type
REMARK                         _______ _______ _______ _____ _____    ______ ____
ROOT
ATOM      1  O   UNL     1       0.754   0.367  -0.095  0.00  0.00    +0.000 OA
ATOM      2  C   UNL     1       1.914   0.067  -0.203  0.00  0.00    +0.000 C 
ATOM      3  N   UNL     1       2.402  -1.073   0.431  0.00  0.00    +0.000 N 
ATOM      4  C   UNL     1       3.210  -0.413   1.456  0.00  0.00    +0.000 C 
ATOM      5  C   UNL     1       4.656  -0.754   1.574  0.00  0.00    +0.000 C 
ATOM      6  S   UNL     1       5.509   0.570   2.360  0.00  0.00    +0.000 S 
ATOM      7  C   UNL     1       4.592   1.161   3.780  0.00  0.00    +0.000 C 
ATOM      8  C   UNL     1       5.051   2.602   3.455  0.00  0.00    +0.000 C 
ATOM      9  C   UNL     1       3.924   3.047   2.602  0.00  0.00    +0.000 C 
ATOM     10  C   UNL     1       4.222   2.034   1.450  0.00  0.00    +0.000 C 
ATOM     11  C   UNL     1       3.128   1.127   1.024  0.00  0.00    +0.000 C 
ATOM     12  N   UNL     1       3.050   0.958  -0.383  0.00  0.00    +0.000 N 
ENDROOT
BRANCH   3  13
ATOM     13  C   UNL     1       2.809  -1.931  -0.650  0.00  0.00    +0.000 C 
BRANCH  13  14
ATOM     14  C   UNL     1       1.952  -1.552  -2.026  0.00  0.00    +0.000 A 
ATOM     15  C   UNL     1       1.552  -2.623  -2.778  0.00  0.00    +0.000 A 
ATOM     16  C   UNL     1       1.349  -2.399  -4.151  0.00  0.00    +0.000 A 
ATOM     17  C   UNL     1       1.583  -1.157  -4.809  0.00  0.00    +0.000 A 
ATOM     18  C   UNL     1       1.834  -0.018  -4.085  0.00  0.00    +0.000 A 
ATOM     19  C   UNL     1       1.848  -0.195  -2.696  0.00  0.00    +0.000 A 
ENDBRANCH  13  14
ENDBRANCH   3  13
BRANCH  12  20
ATOM     20  C   UNL     1       4.405   0.843  -1.300  0.00  0.00    +0.000 C 
BRANCH  20  21
ATOM     21  C   UNL     1       5.016  -0.421  -2.029  0.00  0.00    +0.000 A 
ATOM     22  C   UNL     1       6.203  -1.056  -1.708  0.00  0.00    +0.000 A 
ATOM     23  C   UNL     1       6.523  -2.357  -2.251  0.00  0.00    +0.000 A 
ATOM     24  C   UNL     1       5.677  -3.099  -3.071  0.00  0.00    +0.000 A 
ATOM     25  C   UNL     1       4.661  -2.397  -3.610  0.00  0.00    +0.000 A 
ATOM     26  C   UNL     1       4.468  -1.109  -3.102  0.00  0.00    +0.000 A 
ENDBRANCH  20  21
ENDBRANCH  12  20
TORSDOF 4
