REMARK  Name = Trioxsalen
REMARK  3 active torsions:
REMARK  status: ('A' for Active; 'I' for Inactive)
REMARK    1  A    between atoms: C_1  and  C_2
REMARK    2  A    between atoms: C_12  and  C_13
REMARK    3  A    between atoms: C_14  and  C_15
REMARK                            x       y       z     vdW  Elec       q    Type
REMARK                         _______ _______ _______ _____ _____    ______ ____
ROOT
ATOM      1  C   UNL     1       1.108   0.190   0.074  0.00  0.00    +0.000 C 
ATOM      2  C   UNL     1       2.582   0.065   0.106  0.00  0.00    +0.000 A 
ATOM      3  C   UNL     1       3.277  -1.103   0.197  0.00  0.00    +0.000 A 
ATOM      4  C   UNL     1       4.624  -0.759   0.158  0.00  0.00    +0.000 A 
ATOM      5  C   UNL     1       5.728  -1.582   0.198  0.00  0.00    +0.000 A 
ATOM      6  C   UNL     1       6.964  -1.070  -0.127  0.00  0.00    +0.000 A 
ATOM      7  C   UNL     1       7.115   0.321  -0.242  0.00  0.00    +0.000 A 
ATOM      8  O   UNL     1       8.434   0.778  -0.572  0.00  0.00    +0.000 OA
ATOM      9  C   UNL     1       9.489  -0.107  -0.854  0.00  0.00    +0.000 A 
ATOM     10  O   UNL     1      10.615   0.274  -1.184  0.00  0.00    +0.000 OA
ATOM     11  C   UNL     1       9.227  -1.549  -0.743  0.00  0.00    +0.000 A 
ATOM     12  C   UNL     1       8.035  -2.029  -0.386  0.00  0.00    +0.000 A 
ATOM     13  C   UNL     1       7.739  -3.505  -0.300  0.00  0.00    +0.000 C 
ATOM     14  C   UNL     1       6.026   1.258  -0.063  0.00  0.00    +0.000 A 
ATOM     15  C   UNL     1       6.228   2.749   0.062  0.00  0.00    +0.000 C 
ATOM     16  C   UNL     1       4.753   0.620   0.036  0.00  0.00    +0.000 A 
ATOM     17  O   UNL     1       3.452   1.144   0.043  0.00  0.00    +0.000 OA
ENDROOT
TORSDOF 0
