REMARK  Name = Tripelennamine
REMARK  8 active torsions:
REMARK  status: ('A' for Active; 'I' for Inactive)
REMARK    1  A    between atoms: C_1  and  N_2
REMARK    2  A    between atoms: N_2  and  C_3
REMARK    3  A    between atoms: N_2  and  C_4
REMARK    4  A    between atoms: C_4  and  C_5
REMARK    5  A    between atoms: C_5  and  N_6
REMARK    6  A    between atoms: N_6  and  C_7
REMARK    7  A    between atoms: N_6  and  C_14
REMARK    8  A    between atoms: C_7  and  C_8
REMARK                            x       y       z     vdW  Elec       q    Type
REMARK                         _______ _______ _______ _____ _____    ______ ____
ROOT
ATOM      1  N   UNL     1       4.865  -0.427  -2.828  0.00  0.00    +0.000 N 
ENDROOT
BRANCH   1   2
ATOM      2  C   UNL     1       6.254  -0.402  -3.109  0.00  0.00    +0.000 A 
ATOM      3  C   UNL     1       7.132  -1.111  -2.274  0.00  0.00    +0.000 A 
ATOM      4  C   UNL     1       8.511  -1.108  -2.518  0.00  0.00    +0.000 A 
ATOM      5  C   UNL     1       8.998  -0.385  -3.580  0.00  0.00    +0.000 A 
ATOM      6  C   UNL     1       8.085   0.294  -4.369  0.00  0.00    +0.000 A 
ATOM      7  N   UNL     1       6.733   0.281  -4.165  0.00  0.00    +0.000 NA
ENDBRANCH   1   2
BRANCH   1   8
ATOM      8  C   UNL     1       4.544  -0.123  -1.408  0.00  0.00    +0.000 C 
BRANCH   8   9
ATOM      9  C   UNL     1       3.064  -0.044  -1.038  0.00  0.00    +0.000 C 
BRANCH   9  11
ATOM     10  C   UNL     1       1.084   0.065   0.294  0.00  0.00    +0.000 C 
ATOM     11  N   UNL     1       2.562   0.032   0.347  0.00  0.00    +0.000 NA
ATOM     12  C   UNL     1       2.956  -1.177   1.061  0.00  0.00    +0.000 C 
ENDBRANCH   9  11
ENDBRANCH   8   9
ENDBRANCH   1   8
BRANCH   1  13
ATOM     13  C   UNL     1       3.986  -0.402  -4.025  0.00  0.00    +0.000 C 
BRANCH  13  14
ATOM     14  C   UNL     1       2.471  -0.396  -3.800  0.00  0.00    +0.000 A 
ATOM     15  C   UNL     1       1.792   0.828  -3.639  0.00  0.00    +0.000 A 
ATOM     16  C   UNL     1       0.539   0.862  -3.011  0.00  0.00    +0.000 A 
ATOM     17  C   UNL     1      -0.100  -0.324  -2.644  0.00  0.00    +0.000 A 
ATOM     18  C   UNL     1       0.514  -1.551  -2.901  0.00  0.00    +0.000 A 
ATOM     19  C   UNL     1       1.782  -1.592  -3.501  0.00  0.00    +0.000 A 
ENDBRANCH  13  14
ENDBRANCH   1  13
TORSDOF 6
