REMARK  Name = Triprolidine
REMARK  5 active torsions:
REMARK  status: ('A' for Active; 'I' for Inactive)
REMARK    1  A    between atoms: C_1  and  C_2
REMARK    2  A    between atoms: C_5  and  C_8
REMARK    3  A    between atoms: C_8  and  C_16
REMARK    4  A    between atoms: C_9  and  C_10
REMARK    5  A    between atoms: C_10  and  N_11
REMARK                            x       y       z     vdW  Elec       q    Type
REMARK                         _______ _______ _______ _____ _____    ______ ____
ROOT
ATOM      1  C   UNL     1      -3.203   0.021  -0.126  0.00  0.00    +0.000 C 
ATOM      2  C   UNL     1      -3.917  -1.124  -0.318  0.00  0.00    +0.000 C 
ENDROOT
BRANCH   1   7
ATOM      3  C   UNL     1       2.622   0.082  -0.012  0.00  0.00    +0.000 C 
ATOM      4  C   UNL     1       1.133   0.091   0.015  0.00  0.00    +0.000 A 
ATOM      5  C   UNL     1       0.466  -1.116   0.013  0.00  0.00    +0.000 A 
ATOM      6  C   UNL     1      -0.915  -1.131  -0.010  0.00  0.00    +0.000 A 
ATOM      7  C   UNL     1      -1.707   0.026  -0.007  0.00  0.00    +0.000 A 
ATOM      8  C   UNL     1      -1.006   1.241   0.045  0.00  0.00    +0.000 A 
ATOM      9  C   UNL     1       0.394   1.274   0.033  0.00  0.00    +0.000 A 
ENDBRANCH   1   7
BRANCH   1  10
ATOM     10  C   UNL     1      -4.037   1.277  -0.148  0.00  0.00    +0.000 A 
ATOM     11  C   UNL     1      -3.873   2.195  -1.185  0.00  0.00    +0.000 A 
ATOM     12  C   UNL     1      -4.553   3.410  -1.142  0.00  0.00    +0.000 A 
ATOM     13  C   UNL     1      -5.411   3.674  -0.084  0.00  0.00    +0.000 A 
ATOM     14  C   UNL     1      -5.551   2.699   0.893  0.00  0.00    +0.000 A 
ATOM     15  N   UNL     1      -4.885   1.513   0.889  0.00  0.00    +0.000 NA
ENDBRANCH   1  10
BRANCH   2  16
ATOM     16  C   UNL     1      -3.503  -2.584  -0.203  0.00  0.00    +0.000 C 
BRANCH  16  17
ATOM     17  N   UNL     1      -4.674  -3.427   0.041  0.00  0.00    +0.000 NA
ATOM     18  C   UNL     1      -5.256  -2.992   1.325  0.00  0.00    +0.000 C 
ATOM     19  C   UNL     1      -4.752  -3.973   2.350  0.00  0.00    +0.000 C 
ATOM     20  C   UNL     1      -4.835  -5.268   1.589  0.00  0.00    +0.000 C 
ATOM     21  C   UNL     1      -4.401  -4.877   0.174  0.00  0.00    +0.000 C 
ENDBRANCH  16  17
ENDBRANCH   2  16
TORSDOF 4
