REMARK  Name = Tritoqualine
REMARK  14 active torsions:
REMARK  status: ('A' for Active; 'I' for Inactive)
REMARK    1  A    between atoms: C_1  and  C_2
REMARK    2  A    between atoms: C_2  and  O_3
REMARK    3  A    between atoms: O_3  and  C_4
REMARK    4  A    between atoms: C_5  and  O_6
REMARK    5  A    between atoms: O_6  and  C_7
REMARK    6  A    between atoms: C_7  and  C_8
REMARK    7  A    between atoms: C_9  and  O_10
REMARK    8  A    between atoms: O_10  and  C_11
REMARK    9  A    between atoms: C_11  and  C_12
REMARK   10  A    between atoms: C_13  and  N_14
REMARK   11  A    between atoms: C_17  and  C_21
REMARK   12  A    between atoms: N_22  and  C_23
REMARK   13  A    between atoms: C_33  and  O_34
REMARK   14  A    between atoms: O_34  and  C_35
REMARK                            x       y       z     vdW  Elec       q    Type
REMARK                         _______ _______ _______ _____ _____    ______ ____
ROOT
ATOM      1  C   UNL     1       4.158  -0.787   1.456  0.00  0.00    +0.000 A 
ATOM      2  C   UNL     1       5.124   0.298   1.279  0.00  0.00    +0.000 A 
ATOM      3  C   UNL     1       6.545   0.099   1.490  0.00  0.00    +0.000 A 
ATOM      4  C   UNL     1       6.960  -1.227   1.808  0.00  0.00    +0.000 A 
ATOM      5  C   UNL     1       5.909  -2.223   2.025  0.00  0.00    +0.000 A 
ATOM      6  C   UNL     1       4.485  -1.995   2.008  0.00  0.00    +0.000 A 
ATOM      7  C   UNL     1       3.429  -3.176   2.454  0.00  0.00    +0.000 C 
ATOM      8  O   UNL     1       4.864  -4.018   2.802  0.00  0.00    +0.000 OA
ATOM      9  C   UNL     1       6.122  -3.612   2.352  0.00  0.00    +0.000 C 
ATOM     10  O   UNL     1       7.183  -4.217   2.303  0.00  0.00    +0.000 OA
ENDROOT
BRANCH   7  11
ATOM     11  C   UNL     1       1.751  -3.325   3.587  0.00  0.00    +0.000 C 
ATOM     12  N   UNL     1       2.282  -4.685   2.802  0.00  0.00    +0.000 NA
ATOM     13  C   UNL     1       3.221  -5.603   3.511  0.00  0.00    +0.000 C 
ATOM     14  C   UNL     1       1.121  -5.198   3.181  0.00  0.00    +0.000 C 
ATOM     15  C   UNL     1       0.441  -6.379   3.469  0.00  0.00    +0.000 C 
ATOM     16  C   UNL     1      -0.453  -5.535   4.322  0.00  0.00    +0.000 A 
ATOM     17  C   UNL     1      -1.475  -6.687   4.834  0.00  0.00    +0.000 A 
ATOM     18  C   UNL     1      -2.614  -6.534   5.522  0.00  0.00    +0.000 A 
ATOM     19  C   UNL     1      -2.783  -5.214   5.675  0.00  0.00    +0.000 A 
ATOM     20  O   UNL     1      -4.114  -5.184   6.346  0.00  0.00    +0.000 OA
ATOM     21  C   UNL     1      -4.609  -6.631   6.349  0.00  0.00    +0.000 C 
ATOM     22  O   UNL     1      -3.505  -7.457   5.962  0.00  0.00    +0.000 OA
ATOM     23  C   UNL     1      -1.642  -3.948   5.163  0.00  0.00    +0.000 A 
ATOM     24  C   UNL     1      -0.149  -3.951   4.379  0.00  0.00    +0.000 A 
BRANCH  23  25
ATOM     25  O   UNL     1      -2.525  -2.961   5.633  0.00  0.00    +0.000 OA
ATOM     26  C   UNL     1      -2.182  -1.675   5.308  0.00  0.00    +0.000 C 
ENDBRANCH  23  25
ENDBRANCH   7  11
BRANCH   4  27
ATOM     27  N   UNL     1       8.340  -1.394   2.093  0.00  0.00    +0.000 N 
ATOM     28  H   UNL     1       8.951  -0.587   1.924  0.00  0.00    +0.000 HD
ATOM     29  H   UNL     1       8.792  -2.293   2.210  0.00  0.00    +0.000 HD
ENDBRANCH   4  27
BRANCH   1  30
ATOM     30  O   UNL     1       2.816  -0.688   1.213  0.00  0.00    +0.000 OA
BRANCH  30  32
ATOM     31  C   UNL     1       0.929   0.035   0.047  0.00  0.00    +0.000 C 
ATOM     32  C   UNL     1       2.432   0.028   0.045  0.00  0.00    +0.000 C 
ENDBRANCH  30  32
ENDBRANCH   1  30
BRANCH   2  33
ATOM     33  O   UNL     1       4.367   1.437   1.038  0.00  0.00    +0.000 OA
BRANCH  33  34
ATOM     34  C   UNL     1       4.966   2.648   0.774  0.00  0.00    +0.000 C 
ATOM     35  C   UNL     1       4.366   3.978   0.452  0.00  0.00    +0.000 C 
ENDBRANCH  33  34
ENDBRANCH   2  33
BRANCH   3  36
ATOM     36  O   UNL     1       7.679   0.967   1.484  0.00  0.00    +0.000 OA
BRANCH  36  37
ATOM     37  C   UNL     1       7.434   2.322   1.247  0.00  0.00    +0.000 C 
ATOM     38  C   UNL     1       8.324   3.530   1.129  0.00  0.00    +0.000 C 
ENDBRANCH  36  37
ENDBRANCH   3  36
TORSDOF 9
