REMARK  Name = Troglitazone
REMARK  10 active torsions:
REMARK  status: ('A' for Active; 'I' for Inactive)
REMARK    1  A    between atoms: C_1  and  C_2
REMARK    2  A    between atoms: C_3  and  C_4
REMARK    3  A    between atoms: C_9  and  C_10
REMARK    4  A    between atoms: C_9  and  C_11
REMARK    5  A    between atoms: C_11  and  O_12
REMARK    6  A    between atoms: O_12  and  C_13
REMARK    7  A    between atoms: C_16  and  C_17
REMARK    8  A    between atoms: C_17  and  C_18
REMARK    9  A    between atoms: C_28  and  C_29
REMARK   10  A    between atoms: C_30  and  O_31
REMARK                            x       y       z     vdW  Elec       q    Type
REMARK                         _______ _______ _______ _____ _____    ______ ____
ROOT
ATOM      1  C   UNL     1       7.491   3.668  -0.040  0.00  0.00    +0.000 C 
ENDROOT
BRANCH   1  10
ATOM      2  C   UNL     1       1.040  -0.109  -0.078  0.00  0.00    +0.000 C 
ATOM      3  C   UNL     1       2.549  -0.025  -0.086  0.00  0.00    +0.000 A 
ATOM      4  C   UNL     1       3.268   1.196  -0.133  0.00  0.00    +0.000 A 
ATOM      5  C   UNL     1       2.569   2.531  -0.184  0.00  0.00    +0.000 C 
ATOM      6  C   UNL     1       4.687   1.168  -0.123  0.00  0.00    +0.000 A 
ATOM      7  C   UNL     1       5.378  -0.066  -0.114  0.00  0.00    +0.000 A 
ATOM      8  C   UNL     1       6.883  -0.094  -0.128  0.00  0.00    +0.000 C 
ATOM      9  C   UNL     1       7.449   1.238  -0.539  0.00  0.00    +0.000 C 
ATOM     10  C   UNL     1       6.757   2.335   0.268  0.00  0.00    +0.000 C 
ATOM     11  C   UNL     1       6.850   2.113   1.794  0.00  0.00    +0.000 C 
ATOM     12  O   UNL     1       5.358   2.389  -0.117  0.00  0.00    +0.000 OA
ATOM     13  C   UNL     1       4.667  -1.282  -0.035  0.00  0.00    +0.000 A 
ATOM     14  C   UNL     1       5.397  -2.598   0.051  0.00  0.00    +0.000 C 
ATOM     15  C   UNL     1       3.264  -1.240  -0.033  0.00  0.00    +0.000 A 
BRANCH  15  16
ATOM     16  O   UNL     1       2.518  -2.393   0.021  0.00  0.00    +0.000 OA
ATOM     17  H   UNL     1       3.096  -3.170   0.038  0.00  0.00    +0.000 HD
ENDBRANCH  15  16
ENDBRANCH   1  10
BRANCH   1  18
ATOM     18  O   UNL     1       8.877   3.496   0.338  0.00  0.00    +0.000 OA
BRANCH  18  19
ATOM     19  C   UNL     1       9.685   4.576   0.179  0.00  0.00    +0.000 A 
ATOM     20  C   UNL     1      10.982   4.357  -0.292  0.00  0.00    +0.000 A 
ATOM     21  C   UNL     1      11.875   5.426  -0.455  0.00  0.00    +0.000 A 
ATOM     22  C   UNL     1      11.475   6.730  -0.136  0.00  0.00    +0.000 A 
ATOM     23  C   UNL     1      10.175   6.903   0.343  0.00  0.00    +0.000 A 
ATOM     24  C   UNL     1       9.297   5.850   0.534  0.00  0.00    +0.000 A 
BRANCH  22  25
ATOM     25  C   UNL     1      12.445   7.883  -0.299  0.00  0.00    +0.000 C 
BRANCH  25  26
ATOM     26  C   UNL     1      12.035   9.295   0.164  0.00  0.00    +0.000 C 
ATOM     27  S   UNL     1      11.613   9.438   1.946  0.00  0.00    +0.000 S 
ATOM     28  C   UNL     1      10.037  10.127   1.616  0.00  0.00    +0.000 C 
ATOM     29  O   UNL     1       9.167  10.276   2.450  0.00  0.00    +0.000 OA
ATOM     30  N   UNL     1       9.910  10.393   0.290  0.00  0.00    +0.000 N 
ATOM     31  C   UNL     1      10.864   9.927  -0.572  0.00  0.00    +0.000 C 
ATOM     32  O   UNL     1      10.778  10.053  -1.787  0.00  0.00    +0.000 OA
ATOM     33  H   UNL     1       9.055  10.798  -0.058  0.00  0.00    +0.000 HD
ENDBRANCH  25  26
ENDBRANCH  22  25
ENDBRANCH  18  19
ENDBRANCH   1  18
TORSDOF 6
