REMARK  Name = Trolamine salicylate
REMARK  12 active torsions:
REMARK  status: ('A' for Active; 'I' for Inactive)
REMARK    1  A    between atoms: O_1  and  C_2
REMARK    2  A    between atoms: C_2  and  C_3
REMARK    3  A    between atoms: C_3  and  N_4
REMARK    4  A    between atoms: N_4  and  C_5
REMARK    5  A    between atoms: N_4  and  C_8
REMARK    6  A    between atoms: C_5  and  C_6
REMARK    7  A    between atoms: C_6  and  O_7
REMARK    8  A    between atoms: C_8  and  C_9
REMARK    9  A    between atoms: C_9  and  O_10
REMARK   10  A    between atoms: O_11  and  C_12
REMARK   11  A    between atoms: C_12  and  C_14
REMARK   12  A    between atoms: C_19  and  O_20
REMARK                            x       y       z     vdW  Elec       q    Type
REMARK                         _______ _______ _______ _____ _____    ______ ____
ROOT
ATOM      1  N   UNL     1       4.579  -0.955  -0.604  0.00  0.00    +0.000 NA
ENDROOT
BRANCH   1   2
ATOM      2  C   UNL     1       3.048  -0.877  -1.079  0.00  0.00    +0.000 C 
BRANCH   2   3
ATOM      3  C   UNL     1       2.119   0.447  -1.295  0.00  0.00    +0.000 C 
BRANCH   3   4
ATOM      4  O   UNL     1       0.675   0.154  -1.259  0.00  0.00    +0.000 OA
ATOM      5  H   UNL     1       0.267   0.763  -0.595  0.00  0.00    +0.000 HD
ENDBRANCH   3   4
ENDBRANCH   2   3
ENDBRANCH   1   2
BRANCH   1   6
ATOM      6  C   UNL     1       5.212  -0.250   0.646  0.00  0.00    +0.000 C 
BRANCH   6   7
ATOM      7  C   UNL     1       4.924   1.202   1.130  0.00  0.00    +0.000 C 
BRANCH   7   8
ATOM      8  O   UNL     1       5.541   1.488   2.404  0.00  0.00    +0.000 OA
ATOM      9  H   UNL     1       4.857   1.268   3.075  0.00  0.00    +0.000 HD
ENDBRANCH   7   8
ENDBRANCH   6   7
ENDBRANCH   1   6
BRANCH   1  10
ATOM     10  C   UNL     1       5.101  -2.389  -0.619  0.00  0.00    +0.000 C 
BRANCH  10  11
ATOM     11  C   UNL     1       6.579  -2.778  -0.273  0.00  0.00    +0.000 C 
BRANCH  11  12
ATOM     12  O   UNL     1       6.792  -4.204  -0.220  0.00  0.00    +0.000 OA
ATOM     13  H   UNL     1       6.803  -4.491   0.712  0.00  0.00    +0.000 HD
ENDBRANCH  11  12
ENDBRANCH  10  11
ENDBRANCH   1  10
TORSDOF 9
REMARK  Name = Trolamine salicylate
REMARK  12 active torsions:
REMARK  status: ('A' for Active; 'I' for Inactive)
REMARK    1  A    between atoms: O_1  and  C_2
REMARK    2  A    between atoms: C_2  and  C_3
REMARK    3  A    between atoms: C_3  and  N_4
REMARK    4  A    between atoms: N_4  and  C_5
REMARK    5  A    between atoms: N_4  and  C_8
REMARK    6  A    between atoms: C_5  and  C_6
REMARK    7  A    between atoms: C_6  and  O_7
REMARK    8  A    between atoms: C_8  and  C_9
REMARK    9  A    between atoms: C_9  and  O_10
REMARK   10  A    between atoms: O_11  and  C_12
REMARK   11  A    between atoms: C_12  and  C_14
REMARK   12  A    between atoms: C_19  and  O_20
REMARK                            x       y       z     vdW  Elec       q    Type
REMARK                         _______ _______ _______ _____ _____    ______ ____
ROOT
ATOM      1  C   UNL     2       2.463  -2.080   1.744  0.00  0.00    +0.000 A 
ATOM      2  C   UNL     2       3.588  -1.950   2.574  0.00  0.00    +0.000 A 
ATOM      3  C   UNL     2       4.569  -2.935   2.581  0.00  0.00    +0.000 A 
ATOM      4  C   UNL     2       4.342  -4.138   1.899  0.00  0.00    +0.000 A 
ATOM      5  C   UNL     2       3.229  -4.284   1.036  0.00  0.00    +0.000 A 
ATOM      6  C   UNL     2       2.292  -3.245   0.934  0.00  0.00    +0.000 A 
ENDROOT
BRANCH   1   7
ATOM      7  C   UNL     2       1.867  -0.755   1.504  0.00  0.00    +0.000 C 
ATOM      8  O   UNL     2       2.581   0.233   1.259  0.00  0.00    +0.000 OA
BRANCH   7   9
ATOM      9  O   UNL     2       0.567  -0.624   1.401  0.00  0.00    +0.000 OA
ATOM     10  H   UNL     2       0.395  -0.857   0.463  0.00  0.00    +0.000 HD
ENDBRANCH   7   9
ENDBRANCH   1   7
BRANCH   6  11
ATOM     11  O   UNL     2       1.360  -3.296  -0.087  0.00  0.00    +0.000 OA
ATOM     12  H   UNL     2       1.651  -3.859  -0.837  0.00  0.00    +0.000 HD
ENDBRANCH   6  11
TORSDOF 3
