REMARK  Name = Trolamine
REMARK  9 active torsions:
REMARK  status: ('A' for Active; 'I' for Inactive)
REMARK    1  A    between atoms: O_1  and  C_2
REMARK    2  A    between atoms: C_2  and  C_3
REMARK    3  A    between atoms: C_3  and  N_4
REMARK    4  A    between atoms: N_4  and  C_5
REMARK    5  A    between atoms: N_4  and  C_8
REMARK    6  A    between atoms: C_5  and  C_6
REMARK    7  A    between atoms: C_6  and  O_7
REMARK    8  A    between atoms: C_8  and  C_9
REMARK    9  A    between atoms: C_9  and  O_10
REMARK                            x       y       z     vdW  Elec       q    Type
REMARK                         _______ _______ _______ _____ _____    ______ ____
ROOT
ATOM      1  N   UNL     1       4.391  -0.750   1.157  0.00  0.00    +0.000 NA
ENDROOT
BRANCH   1   2
ATOM      2  C   UNL     1       2.906  -0.854   1.157  0.00  0.00    +0.000 C 
BRANCH   2   3
ATOM      3  C   UNL     1       2.192  -0.111   0.016  0.00  0.00    +0.000 C 
BRANCH   3   4
ATOM      4  O   UNL     1       0.800  -0.383  -0.055  0.00  0.00    +0.000 OA
ATOM      5  H   UNL     1       0.430   0.333  -0.606  0.00  0.00    +0.000 HD
ENDBRANCH   3   4
ENDBRANCH   2   3
ENDBRANCH   1   2
BRANCH   1   6
ATOM      6  C   UNL     1       4.904   0.620   1.371  0.00  0.00    +0.000 C 
BRANCH   6   7
ATOM      7  C   UNL     1       4.671   1.676   0.280  0.00  0.00    +0.000 C 
BRANCH   7   8
ATOM      8  O   UNL     1       5.371   2.875   0.612  0.00  0.00    +0.000 OA
ATOM      9  H   UNL     1       4.853   3.304   1.307  0.00  0.00    +0.000 HD
ENDBRANCH   7   8
ENDBRANCH   6   7
ENDBRANCH   1   6
BRANCH   1  10
ATOM     10  C   UNL     1       4.930  -1.662   2.206  0.00  0.00    +0.000 C 
BRANCH  10  11
ATOM     11  C   UNL     1       6.468  -1.774   2.270  0.00  0.00    +0.000 C 
BRANCH  11  12
ATOM     12  O   UNL     1       6.865  -2.676   3.300  0.00  0.00    +0.000 OA
ATOM     13  H   UNL     1       6.618  -2.266   4.150  0.00  0.00    +0.000 HD
ENDBRANCH  11  12
ENDBRANCH  10  11
ENDBRANCH   1  10
TORSDOF 9
