REMARK  Name = Tromethamine
REMARK  7 active torsions:
REMARK  status: ('A' for Active; 'I' for Inactive)
REMARK    1  A    between atoms: N_1  and  C_2
REMARK    2  A    between atoms: C_2  and  C_3
REMARK    3  A    between atoms: C_2  and  C_5
REMARK    4  A    between atoms: C_2  and  C_7
REMARK    5  A    between atoms: C_3  and  O_4
REMARK    6  A    between atoms: C_5  and  O_6
REMARK    7  A    between atoms: C_7  and  O_8
REMARK                            x       y       z     vdW  Elec       q    Type
REMARK                         _______ _______ _______ _____ _____    ______ ____
ROOT
ATOM      1  C   UNL     1       2.542  -0.011  -0.076  0.00  0.00    +0.000 C 
ENDROOT
BRANCH   1   2
ATOM      2  N   UNL     1       1.057  -0.032  -0.062  0.00  0.00    +0.000 NA
ATOM      3  H   UNL     1       0.731   0.777  -0.600  0.00  0.00    +0.000 HD
ATOM      4  H   UNL     1       0.724   0.155   0.885  0.00  0.00    +0.000 HD
ENDBRANCH   1   2
BRANCH   1   5
ATOM      5  C   UNL     1       3.044  -0.162  -1.544  0.00  0.00    +0.000 C 
BRANCH   5   6
ATOM      6  O   UNL     1       2.672  -1.383  -2.181  0.00  0.00    +0.000 OA
ATOM      7  H   UNL     1       2.795  -2.122  -1.571  0.00  0.00    +0.000 HD
ENDBRANCH   5   6
ENDBRANCH   1   5
BRANCH   1   8
ATOM      8  C   UNL     1       3.043   1.346   0.498  0.00  0.00    +0.000 C 
BRANCH   8   9
ATOM      9  O   UNL     1       2.514   2.456  -0.232  0.00  0.00    +0.000 OA
ATOM     10  H   UNL     1       2.933   2.469  -1.109  0.00  0.00    +0.000 HD
ENDBRANCH   8   9
ENDBRANCH   1   8
BRANCH   1  11
ATOM     11  C   UNL     1       3.074  -1.156   0.820  0.00  0.00    +0.000 C 
BRANCH  11  12
ATOM     12  O   UNL     1       4.499  -1.178   0.869  0.00  0.00    +0.000 OA
ATOM     13  H   UNL     1       4.838  -1.415  -0.011  0.00  0.00    +0.000 HD
ENDBRANCH  11  12
ENDBRANCH   1  11
TORSDOF 7
