REMARK  Name = Tromantadine
REMARK  8 active torsions:
REMARK  status: ('A' for Active; 'I' for Inactive)
REMARK    1  A    between atoms: C_1  and  N_2
REMARK    2  A    between atoms: N_2  and  C_3
REMARK    3  A    between atoms: N_2  and  C_4
REMARK    4  A    between atoms: C_4  and  C_5
REMARK    5  A    between atoms: C_5  and  O_6
REMARK    6  A    between atoms: O_6  and  C_7
REMARK    7  A    between atoms: C_7  and  C_8
REMARK    8  A    between atoms: N_10  and  C_11
REMARK                            x       y       z     vdW  Elec       q    Type
REMARK                         _______ _______ _______ _____ _____    ______ ____
ROOT
ATOM      1  C   UNL     1       6.849   1.790  -3.594  0.00  0.00    +0.000 C 
ATOM      2  O   UNL     1       5.931   2.153  -4.339  0.00  0.00    +0.000 OA
ATOM      3  N   UNL     1       8.208   1.932  -3.876  0.00  0.00    +0.000 N 
ATOM      4  H   UNL     1       8.885   1.591  -3.202  0.00  0.00    +0.000 HD
ENDROOT
BRANCH   3   5
ATOM      5  C   UNL     1       8.717   2.560  -5.124  0.00  0.00    +0.000 C 
ATOM      6  C   UNL     1       9.613   3.797  -4.834  0.00  0.00    +0.000 C 
ATOM      7  C   UNL     1      10.020   4.487  -6.162  0.00  0.00    +0.000 C 
ATOM      8  C   UNL     1      10.821   3.499  -7.029  0.00  0.00    +0.000 C 
ATOM      9  C   UNL     1       9.983   2.239  -7.310  0.00  0.00    +0.000 C 
ATOM     10  C   UNL     1       8.726   2.654  -8.094  0.00  0.00    +0.000 C 
ATOM     11  C   UNL     1       7.931   3.680  -7.289  0.00  0.00    +0.000 C 
ATOM     12  C   UNL     1       8.763   4.912  -6.941  0.00  0.00    +0.000 C 
ATOM     13  C   UNL     1       7.535   3.025  -5.996  0.00  0.00    +0.000 C 
ATOM     14  C   UNL     1       9.577   1.578  -5.967  0.00  0.00    +0.000 C 
ENDBRANCH   3   5
BRANCH   1  15
ATOM     15  C   UNL     1       6.472   1.145  -2.287  0.00  0.00    +0.000 C 
BRANCH  15  16
ATOM     16  O   UNL     1       5.036   1.173  -2.265  0.00  0.00    +0.000 OA
BRANCH  16  17
ATOM     17  C   UNL     1       4.525   0.558  -1.109  0.00  0.00    +0.000 C 
BRANCH  17  18
ATOM     18  C   UNL     1       2.993   0.532  -1.136  0.00  0.00    +0.000 C 
BRANCH  18  20
ATOM     19  C   UNL     1       0.997  -0.069   0.071  0.00  0.00    +0.000 C 
ATOM     20  N   UNL     1       2.459  -0.108   0.082  0.00  0.00    +0.000 NA
ATOM     21  C   UNL     1       2.910  -1.497   0.192  0.00  0.00    +0.000 C 
ENDBRANCH  18  20
ENDBRANCH  17  18
ENDBRANCH  16  17
ENDBRANCH  15  16
ENDBRANCH   1  15
TORSDOF 6
