REMARK  Name = Tropisetron
REMARK  4 active torsions:
REMARK  status: ('A' for Active; 'I' for Inactive)
REMARK    1  A    between atoms: C_8  and  O_11
REMARK    2  A    between atoms: O_11  and  C_12
REMARK    3  A    between atoms: C_12  and  C_14
REMARK    4  A    between atoms: N_23  and  C_24
REMARK                            x       y       z     vdW  Elec       q    Type
REMARK                         _______ _______ _______ _____ _____    ______ ____
ROOT
ATOM      1  C   UNL     1       3.859  -0.371  -3.459  0.00  0.00    +0.000 C 
ATOM      2  O   UNL     1       3.003  -1.177  -3.822  0.00  0.00    +0.000 OA
ENDROOT
BRANCH   1   3
ATOM      3  C   UNL     1       4.303   0.702  -4.336  0.00  0.00    +0.000 A 
ATOM      4  C   UNL     1       3.475   1.365  -5.228  0.00  0.00    +0.000 A 
ATOM      5  N   UNL     1       4.239   2.187  -6.009  0.00  0.00    +0.000 N 
ATOM      6  C   UNL     1       5.565   2.063  -5.664  0.00  0.00    +0.000 A 
ATOM      7  C   UNL     1       6.706   2.627  -6.250  0.00  0.00    +0.000 A 
ATOM      8  C   UNL     1       7.947   2.282  -5.708  0.00  0.00    +0.000 A 
ATOM      9  C   UNL     1       8.039   1.435  -4.606  0.00  0.00    +0.000 A 
ATOM     10  C   UNL     1       6.889   0.891  -4.026  0.00  0.00    +0.000 A 
ATOM     11  C   UNL     1       5.626   1.189  -4.574  0.00  0.00    +0.000 A 
ATOM     12  H   UNL     1       3.894   2.749  -6.777  0.00  0.00    +0.000 HD
ENDBRANCH   1   3
BRANCH   1  13
ATOM     13  O   UNL     1       4.434  -0.373  -2.217  0.00  0.00    +0.000 OA
BRANCH  13  19
ATOM     14  C   UNL     1       2.036  -0.070  -0.057  0.00  0.00    +0.000 C 
ATOM     15  C   UNL     1       2.661   1.263  -0.488  0.00  0.00    +0.000 C 
ATOM     16  C   UNL     1       4.021   1.298   0.226  0.00  0.00    +0.000 C 
ATOM     17  C   UNL     1       4.091  -0.037   0.978  0.00  0.00    +0.000 C 
ATOM     18  C   UNL     1       4.687  -1.154   0.089  0.00  0.00    +0.000 C 
ATOM     19  C   UNL     1       3.930  -1.340  -1.249  0.00  0.00    +0.000 C 
ATOM     20  C   UNL     1       2.409  -1.221  -1.006  0.00  0.00    +0.000 C 
ATOM     21  N   UNL     1       2.663  -0.228   1.255  0.00  0.00    +0.000 NA
ATOM     22  C   UNL     1       2.286  -1.419   1.991  0.00  0.00    +0.000 C 
ENDBRANCH  13  19
ENDBRANCH   1  13
TORSDOF 3
