REMARK  Name = Tropicamide
REMARK  8 active torsions:
REMARK  status: ('A' for Active; 'I' for Inactive)
REMARK    1  A    between atoms: C_1  and  C_2
REMARK    2  A    between atoms: C_2  and  N_3
REMARK    3  A    between atoms: N_3  and  C_4
REMARK    4  A    between atoms: C_4  and  C_5
REMARK    5  A    between atoms: C_11  and  C_13
REMARK    6  A    between atoms: C_13  and  C_14
REMARK    7  A    between atoms: C_13  and  C_16
REMARK    8  A    between atoms: C_14  and  O_15
REMARK                            x       y       z     vdW  Elec       q    Type
REMARK                         _______ _______ _______ _____ _____    ______ ____
ROOT
ATOM      1  N   UNL     1       2.890   1.223  -0.093  0.00  0.00    +0.000 N 
ATOM      2  C   UNL     1       4.271   1.464   0.152  0.00  0.00    +0.000 C 
ATOM      3  O   UNL     1       4.979   0.470   0.234  0.00  0.00    +0.000 OA
ENDROOT
BRANCH   1   5
ATOM      4  C   UNL     1       1.284  -0.859  -0.498  0.00  0.00    +0.000 C 
ATOM      5  C   UNL     1       2.646  -0.257  -0.262  0.00  0.00    +0.000 C 
ENDBRANCH   1   5
BRANCH   1   6
ATOM      6  C   UNL     1       1.882   2.301   0.129  0.00  0.00    +0.000 C 
BRANCH   6   7
ATOM      7  C   UNL     1       0.405   2.073   0.230  0.00  0.00    +0.000 A 
ATOM      8  C   UNL     1      -0.624   2.960  -0.027  0.00  0.00    +0.000 A 
ATOM      9  C   UNL     1      -1.917   2.441  -0.058  0.00  0.00    +0.000 A 
ATOM     10  N   UNL     1      -2.190   1.126   0.031  0.00  0.00    +0.000 NA
ATOM     11  C   UNL     1      -1.200   0.397   0.537  0.00  0.00    +0.000 A 
ATOM     12  C   UNL     1      -0.007   0.970   0.927  0.00  0.00    +0.000 A 
ENDBRANCH   6   7
ENDBRANCH   1   6
BRANCH   2  13
ATOM     13  C   UNL     1       4.891   2.922   0.279  0.00  0.00    +0.000 C 
BRANCH  13  14
ATOM     14  C   UNL     1       6.461   2.958   0.211  0.00  0.00    +0.000 A 
ATOM     15  C   UNL     1       7.267   1.823   0.028  0.00  0.00    +0.000 A 
ATOM     16  C   UNL     1       8.640   1.831   0.269  0.00  0.00    +0.000 A 
ATOM     17  C   UNL     1       9.285   3.024   0.539  0.00  0.00    +0.000 A 
ATOM     18  C   UNL     1       8.544   4.196   0.614  0.00  0.00    +0.000 A 
ATOM     19  C   UNL     1       7.153   4.166   0.448  0.00  0.00    +0.000 A 
ENDBRANCH  13  14
BRANCH  13  20
ATOM     20  C   UNL     1       4.525   3.618   1.625  0.00  0.00    +0.000 C 
BRANCH  20  21
ATOM     21  O   UNL     1       3.196   4.087   1.785  0.00  0.00    +0.000 OA
ATOM     22  H   UNL     1       2.917   4.517   0.962  0.00  0.00    +0.000 HD
ENDBRANCH  20  21
ENDBRANCH  13  20
ENDBRANCH   2  13
TORSDOF 7
