REMARK  Name = Trospium
REMARK  6 active torsions:
REMARK  status: ('A' for Active; 'I' for Inactive)
REMARK    1  A    between atoms: C_8  and  O_10
REMARK    2  A    between atoms: O_10  and  C_11
REMARK    3  A    between atoms: C_11  and  C_13
REMARK    4  A    between atoms: C_13  and  O_14
REMARK    5  A    between atoms: C_13  and  C_15
REMARK    6  A    between atoms: C_13  and  C_21
REMARK                            x       y       z     vdW  Elec       q    Type
REMARK                         _______ _______ _______ _____ _____    ______ ____
ROOT
ATOM      1  C   UNL     1       3.856   1.172   3.196  0.00  0.00    +0.000 C 
ATOM      2  O   UNL     1       3.071   2.124   3.232  0.00  0.00    +0.000 OA
ENDROOT
BRANCH   1   3
ATOM      3  O   UNL     1       4.431   0.747   2.024  0.00  0.00    +0.000 OA
BRANCH   3   9
ATOM      4  C   UNL     1       2.127   0.012  -0.070  0.00  0.00    +0.000 C 
ATOM      5  C   UNL     1       2.723  -1.220   0.632  0.00  0.00    +0.000 C 
ATOM      6  C   UNL     1       4.118  -1.405   0.018  0.00  0.00    +0.000 C 
ATOM      7  C   UNL     1       4.271  -0.262  -0.997  0.00  0.00    +0.000 C 
ATOM      8  C   UNL     1       4.832   1.012  -0.344  0.00  0.00    +0.000 C 
ATOM      9  C   UNL     1       4.005   1.491   0.861  0.00  0.00    +0.000 C 
ATOM     10  C   UNL     1       2.488   1.312   0.643  0.00  0.00    +0.000 C 
ATOM     11  N   UNL     1       2.819  -0.014  -1.435  0.00  0.00    +0.000 N 
ATOM     12  C   UNL     1       2.273  -1.157  -2.316  0.00  0.00    +0.000 C 
ATOM     13  C   UNL     1       1.093  -0.561  -3.063  0.00  0.00    +0.000 C 
ATOM     14  C   UNL     1       1.191   0.945  -2.902  0.00  0.00    +0.000 C 
ATOM     15  C   UNL     1       2.570   1.197  -2.333  0.00  0.00    +0.000 C 
ENDBRANCH   3   9
ENDBRANCH   1   3
BRANCH   1  16
ATOM     16  C   UNL     1       4.307   0.321   4.410  0.00  0.00    +0.000 C 
BRANCH  16  17
ATOM     17  C   UNL     1       5.821   0.499   4.629  0.00  0.00    +0.000 A 
ATOM     18  C   UNL     1       6.689  -0.577   4.868  0.00  0.00    +0.000 A 
ATOM     19  C   UNL     1       8.012  -0.340   5.251  0.00  0.00    +0.000 A 
ATOM     20  C   UNL     1       8.499   0.962   5.352  0.00  0.00    +0.000 A 
ATOM     21  C   UNL     1       7.664   2.038   5.091  0.00  0.00    +0.000 A 
ATOM     22  C   UNL     1       6.347   1.805   4.720  0.00  0.00    +0.000 A 
ENDBRANCH  16  17
BRANCH  16  23
ATOM     23  C   UNL     1       3.549   0.743   5.681  0.00  0.00    +0.000 A 
ATOM     24  C   UNL     1       3.476   2.108   6.043  0.00  0.00    +0.000 A 
ATOM     25  C   UNL     1       2.989   2.517   7.275  0.00  0.00    +0.000 A 
ATOM     26  C   UNL     1       2.456   1.574   8.136  0.00  0.00    +0.000 A 
ATOM     27  C   UNL     1       2.450   0.225   7.779  0.00  0.00    +0.000 A 
ATOM     28  C   UNL     1       3.005  -0.194   6.567  0.00  0.00    +0.000 A 
ENDBRANCH  16  23
BRANCH  16  29
ATOM     29  O   UNL     1       3.984  -1.048   4.086  0.00  0.00    +0.000 OA
ATOM     30  H   UNL     1       4.652  -1.356   3.453  0.00  0.00    +0.000 HD
ENDBRANCH  16  29
ENDBRANCH   1  16
TORSDOF 6
