REMARK  Name = Trovafloxacin
REMARK  4 active torsions:
REMARK  status: ('A' for Active; 'I' for Inactive)
REMARK    1  A    between atoms: C_8  and  N_9
REMARK    2  A    between atoms: C_19  and  C_30
REMARK    3  A    between atoms: N_21  and  C_22
REMARK    4  A    between atoms: C_30  and  O_31
REMARK                            x       y       z     vdW  Elec       q    Type
REMARK                         _______ _______ _______ _____ _____    ______ ____
ROOT
ATOM      1  C   UNL     1       2.204  -0.043   0.106  0.00  0.00    +0.000 C 
ATOM      2  C   UNL     1       2.342  -1.459   0.615  0.00  0.00    +0.000 C 
ATOM      3  N   UNL     1       3.303  -2.043  -0.309  0.00  0.00    +0.000 N 
ATOM      4  C   UNL     1       4.244  -1.030  -0.776  0.00  0.00    +0.000 C 
ATOM      5  C   UNL     1       3.395   0.227  -0.779  0.00  0.00    +0.000 C 
ATOM      6  C   UNL     1       3.154   1.084   0.436  0.00  0.00    +0.000 C 
ATOM      7  C   UNL     1       3.285  -3.352  -0.734  0.00  0.00    +0.000 A 
ATOM      8  N   UNL     1       2.155  -3.874  -1.303  0.00  0.00    +0.000 NA
ATOM      9  C   UNL     1       2.140  -5.178  -1.757  0.00  0.00    +0.000 A 
ATOM     10  C   UNL     1       3.250  -6.005  -1.599  0.00  0.00    +0.000 A 
ATOM     11  C   UNL     1       4.400  -5.489  -1.008  0.00  0.00    +0.000 A 
ATOM     12  C   UNL     1       4.418  -4.162  -0.599  0.00  0.00    +0.000 A 
ATOM     13  F   UNL     1       5.533  -3.692  -0.019  0.00  0.00    +0.000 F 
ATOM     14  C   UNL     1       3.231  -7.419  -2.032  0.00  0.00    +0.000 A 
ATOM     15  O   UNL     1       4.241  -8.090  -1.847  0.00  0.00    +0.000 OA
ATOM     16  C   UNL     1       2.002  -7.973  -2.673  0.00  0.00    +0.000 A 
ATOM     17  C   UNL     1       0.991  -7.090  -2.793  0.00  0.00    +0.000 A 
ATOM     18  N   UNL     1       0.974  -5.743  -2.390  0.00  0.00    +0.000 N 
ENDROOT
BRANCH  18  19
ATOM     19  C   UNL     1      -0.193  -4.956  -2.630  0.00  0.00    +0.000 A 
ATOM     20  C   UNL     1      -1.428  -5.280  -2.041  0.00  0.00    +0.000 A 
ATOM     21  F   UNL     1      -1.527  -6.354  -1.242  0.00  0.00    +0.000 F 
ATOM     22  C   UNL     1      -2.562  -4.506  -2.259  0.00  0.00    +0.000 A 
ATOM     23  C   UNL     1      -2.508  -3.504  -3.216  0.00  0.00    +0.000 A 
ATOM     24  F   UNL     1      -3.607  -2.788  -3.486  0.00  0.00    +0.000 F 
ATOM     25  C   UNL     1      -1.327  -3.220  -3.890  0.00  0.00    +0.000 A 
ATOM     26  C   UNL     1      -0.147  -3.857  -3.502  0.00  0.00    +0.000 A 
ENDBRANCH  18  19
BRANCH   6  27
ATOM     27  N   UNL     1       2.687   2.470   0.263  0.00  0.00    +0.000 NA
ATOM     28  H   UNL     1       2.085   2.587  -0.553  0.00  0.00    +0.000 HD
ATOM     29  H   UNL     1       3.467   3.114   0.128  0.00  0.00    +0.000 HD
ENDBRANCH   6  27
BRANCH  16  30
ATOM     30  C   UNL     1       1.981  -9.397  -3.125  0.00  0.00    +0.000 C 
ATOM     31  O   UNL     1       2.932 -10.164  -2.991  0.00  0.00    +0.000 OA
BRANCH  30  32
ATOM     32  O   UNL     1       0.857  -9.849  -3.716  0.00  0.00    +0.000 OA
ATOM     33  H   UNL     1       0.091  -9.264  -3.817  0.00  0.00    +0.000 HD
ENDBRANCH  30  32
ENDBRANCH  16  30
TORSDOF 4
