REMARK  Name = Tryptophan
REMARK  5 active torsions:
REMARK  status: ('A' for Active; 'I' for Inactive)
REMARK    1  A    between atoms: N_1  and  CA_2
REMARK    2  A    between atoms: CA_2  and  CB_3
REMARK    3  A    between atoms: CA_2  and  C_13
REMARK    4  A    between atoms: CB_3  and  CG_4
REMARK    5  A    between atoms: C_13  and  O_14
REMARK                            x       y       z     vdW  Elec       q    Type
REMARK                         _______ _______ _______ _____ _____    ______ ____
ROOT
ATOM      1  CG  TRP A   1       2.579  -2.360   0.282  0.00  0.00    +0.000 A 
ATOM      2  CD1 TRP A   1       2.863  -3.682  -0.018  0.00  0.00    +0.000 A 
ATOM      3  NE1 TRP A   1       2.397  -4.471   1.001  0.00  0.00    +0.000 N 
ATOM      4  CE2 TRP A   1       1.723  -3.706   1.925  0.00  0.00    +0.000 A 
ATOM      5  CD2 TRP A   1       1.844  -2.375   1.524  0.00  0.00    +0.000 A 
ATOM      6  CE3 TRP A   1       1.248  -1.396   2.353  0.00  0.00    +0.000 A 
ATOM      7  CZ3 TRP A   1       0.474  -1.747   3.451  0.00  0.00    +0.000 A 
ATOM      8  CH2 TRP A   1       0.381  -3.074   3.823  0.00  0.00    +0.000 A 
ATOM      9  CZ2 TRP A   1       1.031  -4.076   3.089  0.00  0.00    +0.000 A 
ATOM     10  HE1 TRP A   1       2.512  -5.474   1.056  0.00  0.00    +0.000 HD
ENDROOT
BRANCH   1  11
ATOM     11  CB  TRP A   1       2.991  -1.188  -0.577  0.00  0.00    +0.000 C 
BRANCH  11  12
ATOM     12  CA  TRP A   1       2.460   0.176  -0.122  0.00  0.00    +0.000 C 
BRANCH  12  13
ATOM     13  N   TRP A   1       0.962   0.274  -0.270  0.00  0.00    +0.000 NA
ATOM     14  H1  TRP A   1       0.561  -0.492   0.289  0.00  0.00    +0.000 HD
ATOM     15  H2  TRP A   1       0.711  -0.048  -1.208  0.00  0.00    +0.000 HD
ENDBRANCH  12  13
BRANCH  12  16
ATOM     16  C   TRP A   1       3.098   1.315  -0.915  0.00  0.00    +0.000 C 
ATOM     17  OXT TRP A   1       4.305   1.486  -1.043  0.00  0.00    +0.000 OA
BRANCH  16  18
ATOM     18  O   TRP A   1       2.172   2.151  -1.449  0.00  0.00    +0.000 OA
ATOM     19  H   TRP A   1       1.288   1.856  -1.115  0.00  0.00    +0.000 HD
ENDBRANCH  16  18
ENDBRANCH  12  16
ENDBRANCH  11  12
ENDBRANCH   1  11
TORSDOF 5
