REMARK  Name = Tubocurarine
REMARK  9 active torsions:
REMARK  status: ('A' for Active; 'I' for Inactive)
REMARK    1  A    between atoms: N_14  and  C_15
REMARK    2  A    between atoms: N_14  and  C_16
REMARK    3  A    between atoms: C_25  and  O_26
REMARK    4  A    between atoms: O_26  and  C_27
REMARK    5  A    between atoms: N_32  and  C_33
REMARK    6  A    between atoms: C_36  and  O_37
REMARK    7  A    between atoms: C_41  and  O_42
REMARK    8  A    between atoms: O_42  and  C_43
REMARK    9  A    between atoms: C_44  and  O_45
REMARK                            x       y       z     vdW  Elec       q    Type
REMARK                         _______ _______ _______ _____ _____    ______ ____
ROOT
ATOM      1  C   UNL     1       2.006   0.360  -0.424  0.00  0.00    +0.000 C 
ATOM      2  C   UNL     1       2.714  -0.540  -1.635  0.00  0.00    +0.000 C 
ATOM      3  C   UNL     1       4.298  -0.637  -1.853  0.00  0.00    +0.000 A 
ATOM      4  C   UNL     1       5.193   0.480  -1.886  0.00  0.00    +0.000 A 
ATOM      5  C   UNL     1       6.419   0.513  -1.217  0.00  0.00    +0.000 A 
ATOM      6  C   UNL     1       7.116  -0.639  -1.314  0.00  0.00    +0.000 A 
ATOM      7  O   UNL     1       8.345  -0.649  -0.668  0.00  0.00    +0.000 OA
ATOM      8  C   UNL     1       9.069  -1.823  -0.626  0.00  0.00    +0.000 A 
ATOM      9  C   UNL     1       8.760  -2.852   0.283  0.00  0.00    +0.000 A 
ATOM     10  C   UNL     1       9.414  -4.079   0.248  0.00  0.00    +0.000 A 
ATOM     11  C   UNL     1       8.987  -5.205   1.161  0.00  0.00    +0.000 C 
ATOM     12  C   UNL     1       7.566  -5.032   1.761  0.00  0.00    +0.000 C 
ATOM     13  N   UNL     1       7.522  -3.588   2.422  0.00  0.00    +0.000 N 
ATOM     14  C   UNL     1       8.262  -3.767   3.689  0.00  0.00    +0.000 C 
ATOM     15  C   UNL     1       6.479  -2.770   3.176  0.00  0.00    +0.000 C 
ATOM     16  C   UNL     1       7.646  -2.675   1.227  0.00  0.00    +0.000 C 
ATOM     17  C   UNL     1       6.371  -2.924   0.419  0.00  0.00    +0.000 C 
ATOM     18  C   UNL     1       5.064  -2.790   1.011  0.00  0.00    +0.000 A 
ATOM     19  C   UNL     1       4.656  -3.884   1.693  0.00  0.00    +0.000 A 
ATOM     20  C   UNL     1       3.056  -3.644   2.536  0.00  0.00    +0.000 A 
ATOM     21  O   UNL     1       2.450  -4.450   1.753  0.00  0.00    +0.000 OA
ATOM     22  C   UNL     1       2.906  -3.056   1.777  0.00  0.00    +0.000 A 
ATOM     23  C   UNL     1       3.855  -2.268   3.370  0.00  0.00    +0.000 A 
ATOM     24  C   UNL     1       4.060  -0.516   3.556  0.00  0.00    +0.000 A 
ATOM     25  C   UNL     1       3.448   0.395   2.126  0.00  0.00    +0.000 A 
ATOM     26  C   UNL     1       3.163   1.817   2.393  0.00  0.00    +0.000 C 
ATOM     27  C   UNL     1       2.159   2.219   1.305  0.00  0.00    +0.000 C 
ATOM     28  N   UNL     1       2.421   1.745  -0.056  0.00  0.00    +0.000 NA
ATOM     29  C   UNL     1       3.858   1.783  -0.098  0.00  0.00    +0.000 C 
ATOM     30  C   UNL     1       2.594  -0.401   0.626  0.00  0.00    +0.000 A 
ATOM     31  C   UNL     1       2.255  -2.174   0.482  0.00  0.00    +0.000 A 
ATOM     32  C   UNL     1       1.818  -2.284   3.048  0.00  0.00    +0.000 A 
ATOM     33  C   UNL     1       2.501  -1.310   2.355  0.00  0.00    +0.000 A 
ATOM     34  C   UNL     1       4.201  -1.548   1.347  0.00  0.00    +0.000 A 
ATOM     35  C   UNL     1      10.499  -4.224  -0.613  0.00  0.00    +0.000 A 
ATOM     36  C   UNL     1      10.882  -3.186  -1.469  0.00  0.00    +0.000 A 
ATOM     37  C   UNL     1      10.166  -1.977  -1.455  0.00  0.00    +0.000 A 
ATOM     38  C   UNL     1       6.420  -1.754  -1.895  0.00  0.00    +0.000 A 
ATOM     39  C   UNL     1       4.977  -1.826  -1.873  0.00  0.00    +0.000 A 
ENDROOT
BRANCH  23  40
ATOM     40  O   UNL     1       3.793  -3.118   4.745  0.00  0.00    +0.000 OA
ATOM     41  C   UNL     1       3.045  -4.332   4.463  0.00  0.00    +0.000 C 
ENDBRANCH  23  40
BRANCH  32  42
ATOM     42  O   UNL     1       1.474  -1.568   4.183  0.00  0.00    +0.000 OA
ATOM     43  H   UNL     1       1.938  -1.988   4.908  0.00  0.00    +0.000 HD
ENDBRANCH  32  42
BRANCH  36  44
ATOM     44  O   UNL     1      11.980  -3.228  -2.284  0.00  0.00    +0.000 OA
ATOM     45  C   UNL     1      12.335  -4.462  -2.915  0.00  0.00    +0.000 C 
ENDBRANCH  36  44
BRANCH  37  46
ATOM     46  O   UNL     1      10.521  -0.931  -2.259  0.00  0.00    +0.000 OA
ATOM     47  H   UNL     1      11.308  -1.213  -2.758  0.00  0.00    +0.000 HD
ENDBRANCH  37  46
TORSDOF 4
