REMARK  Name = Tucatinib
REMARK  7 active torsions:
REMARK  status: ('A' for Active; 'I' for Inactive)
REMARK    1  A    between atoms: C_1  and  C_2
REMARK    2  A    between atoms: C_4  and  N_5
REMARK    3  A    between atoms: C_13  and  N_14
REMARK    4  A    between atoms: C_17  and  C_18
REMARK    5  A    between atoms: C_17  and  C_19
REMARK    6  A    between atoms: C_26  and  O_27
REMARK    7  A    between atoms: O_27  and  C_28
REMARK                            x       y       z     vdW  Elec       q    Type
REMARK                         _______ _______ _______ _____ _____    ______ ____
ROOT
ATOM      1  N   UNL     1      -1.895  -2.401  -0.115  0.00  0.00    +0.000 N 
ATOM      2  C   UNL     1      -3.307  -2.486  -0.118  0.00  0.00    +0.000 A 
ATOM      3  N   UNL     1      -3.905  -3.101   0.920  0.00  0.00    +0.000 NA
ATOM      4  C   UNL     1      -5.244  -3.029   0.946  0.00  0.00    +0.000 A 
ATOM      5  N   UNL     1      -6.026  -2.447   0.026  0.00  0.00    +0.000 NA
ATOM      6  C   UNL     1      -5.408  -1.891  -1.021  0.00  0.00    +0.000 A 
ATOM      7  C   UNL     1      -6.155  -1.287  -2.017  0.00  0.00    +0.000 A 
ATOM      8  C   UNL     1      -5.556  -0.670  -3.123  0.00  0.00    +0.000 A 
ATOM      9  C   UNL     1      -4.171  -0.640  -3.283  0.00  0.00    +0.000 A 
ATOM     10  C   UNL     1      -3.417  -1.266  -2.297  0.00  0.00    +0.000 A 
ATOM     11  C   UNL     1      -4.022  -1.877  -1.161  0.00  0.00    +0.000 A 
ATOM     12  H   UNL     1      -1.495  -3.178   0.403  0.00  0.00    +0.000 HD
ENDROOT
BRANCH   9  13
ATOM     13  N   UNL     1      -3.525   0.088  -4.311  0.00  0.00    +0.000 N 
ATOM     14  C   UNL     1      -4.219   0.476  -5.426  0.00  0.00    +0.000 C 
ATOM     15  N   UNL     1      -4.120  -0.021  -6.607  0.00  0.00    +0.000 NA
ATOM     16  C   UNL     1      -5.141   0.701  -7.397  0.00  0.00    +0.000 C 
ATOM     17  C   UNL     1      -4.474   1.280  -8.640  0.00  0.00    +0.000 C 
ATOM     18  C   UNL     1      -6.257  -0.266  -7.803  0.00  0.00    +0.000 C 
ATOM     19  C   UNL     1      -5.665   1.788  -6.469  0.00  0.00    +0.000 C 
ATOM     20  O   UNL     1      -5.076   1.507  -5.209  0.00  0.00    +0.000 OA
ATOM     21  H   UNL     1      -2.632  -0.332  -4.543  0.00  0.00    +0.000 HD
ENDBRANCH   9  13
BRANCH   1  25
ATOM     22  C   UNL     1       2.498  -0.351   0.111  0.00  0.00    +0.000 C 
ATOM     23  C   UNL     1       1.028  -0.088   0.075  0.00  0.00    +0.000 A 
ATOM     24  C   UNL     1       0.226  -1.252   0.056  0.00  0.00    +0.000 A 
ATOM     25  C   UNL     1      -1.162  -1.197   0.058  0.00  0.00    +0.000 A 
ATOM     26  C   UNL     1      -1.746   0.076   0.069  0.00  0.00    +0.000 A 
ATOM     27  C   UNL     1      -0.970   1.246   0.024  0.00  0.00    +0.000 A 
ATOM     28  C   UNL     1       0.431   1.186   0.008  0.00  0.00    +0.000 A 
BRANCH  28  29
ATOM     29  O   UNL     1       1.042   2.433  -0.074  0.00  0.00    +0.000 OA
BRANCH  29  30
ATOM     30  C   UNL     1       2.423   2.584  -0.076  0.00  0.00    +0.000 A 
ATOM     31  C   UNL     1       3.085   3.098   0.984  0.00  0.00    +0.000 A 
ATOM     32  C   UNL     1       4.512   3.048   1.019  0.00  0.00    +0.000 A 
ATOM     33  N   UNL     1       5.393   3.449   1.909  0.00  0.00    +0.000 NA
ATOM     34  C   UNL     1       6.578   3.047   1.368  0.00  0.00    +0.000 A 
ATOM     35  N   UNL     1       6.497   2.381   0.216  0.00  0.00    +0.000 NA
ATOM     36  N   UNL     1       5.168   2.417  -0.043  0.00  0.00    +0.000 N 
ATOM     37  C   UNL     1       4.489   1.953  -1.166  0.00  0.00    +0.000 A 
ATOM     38  C   UNL     1       3.155   2.117  -1.256  0.00  0.00    +0.000 A 
ENDBRANCH  29  30
ENDBRANCH  28  29
ENDBRANCH   1  25
TORSDOF 4
