REMARK  Name = Tyrosine
REMARK  6 active torsions:
REMARK  status: ('A' for Active; 'I' for Inactive)
REMARK    1  A    between atoms: N_1  and  CA_2
REMARK    2  A    between atoms: CA_2  and  CB_3
REMARK    3  A    between atoms: CA_2  and  C_11
REMARK    4  A    between atoms: CB_3  and  CG_4
REMARK    5  A    between atoms: CZ_7  and  OH_8
REMARK    6  A    between atoms: C_11  and  O_12
REMARK                            x       y       z     vdW  Elec       q    Type
REMARK                         _______ _______ _______ _____ _____    ______ ____
ROOT
ATOM      1  CB  TYR A   1       3.015   0.380  -1.307  0.00  0.00    +0.000 C 
ENDROOT
BRANCH   1   2
ATOM      2  CG  TYR A   1       2.603  -0.606  -2.380  0.00  0.00    +0.000 A 
ATOM      3  CD1 TYR A   1       2.011  -0.184  -3.581  0.00  0.00    +0.000 A 
ATOM      4  CE1 TYR A   1       1.713  -1.112  -4.588  0.00  0.00    +0.000 A 
ATOM      5  CZ  TYR A   1       2.001  -2.459  -4.388  0.00  0.00    +0.000 A 
ATOM      6  CE2 TYR A   1       2.557  -2.894  -3.195  0.00  0.00    +0.000 A 
ATOM      7  CD2 TYR A   1       2.863  -1.972  -2.200  0.00  0.00    +0.000 A 
BRANCH   5   8
ATOM      8  OH  TYR A   1       1.768  -3.406  -5.340  0.00  0.00    +0.000 OA
ATOM      9  HH  TYR A   1       1.440  -2.977  -6.146  0.00  0.00    +0.000 HD
ENDBRANCH   5   8
ENDBRANCH   1   2
BRANCH   1  10
ATOM     10  CA  TYR A   1       2.496   0.017   0.097  0.00  0.00    +0.000 C 
BRANCH  10  11
ATOM     11  N   TYR A   1       1.001   0.050   0.151  0.00  0.00    +0.000 NA
ATOM     12  H1  TYR A   1       0.686  -0.675  -0.511  0.00  0.00    +0.000 HD
ATOM     13  H2  TYR A   1       0.675   0.909  -0.299  0.00  0.00    +0.000 HD
ENDBRANCH  10  11
BRANCH  10  14
ATOM     14  C   TYR A   1       3.094   0.974   1.132  0.00  0.00    +0.000 C 
ATOM     15  OXT TYR A   1       4.298   1.145   1.292  0.00  0.00    +0.000 OA
BRANCH  14  16
ATOM     16  O   TYR A   1       2.160   1.627   1.864  0.00  0.00    +0.000 OA
ATOM     17  H   TYR A   1       1.276   1.257   1.634  0.00  0.00    +0.000 HD
ENDBRANCH  14  16
ENDBRANCH  10  14
ENDBRANCH   1  10
TORSDOF 6
