REMARK  Name = Tyropanoic acid
REMARK  10 active torsions:
REMARK  status: ('A' for Active; 'I' for Inactive)
REMARK    1  A    between atoms: C_1  and  C_2
REMARK    2  A    between atoms: C_2  and  C_3
REMARK    3  A    between atoms: C_3  and  C_4
REMARK    4  A    between atoms: N_6  and  C_7
REMARK    5  A    between atoms: C_13  and  C_14
REMARK    6  A    between atoms: C_14  and  C_15
REMARK    7  A    between atoms: C_15  and  C_16
REMARK    8  A    between atoms: C_15  and  C_18
REMARK    9  A    between atoms: C_16  and  C_17
REMARK   10  A    between atoms: C_18  and  O_19
REMARK                            x       y       z     vdW  Elec       q    Type
REMARK                         _______ _______ _______ _____ _____    ______ ____
ROOT
ATOM      1  C   UNL     1       6.603   2.718   0.909  0.00  0.00    +0.000 A 
ATOM      2  C   UNL     1       7.393   2.117  -0.080  0.00  0.00    +0.000 A 
ATOM      3  I   UNL     1       6.637   1.609  -2.002  0.00  0.00    +0.000 I 
ATOM      4  C   UNL     1       8.788   2.091   0.021  0.00  0.00    +0.000 A 
ATOM      5  C   UNL     1       9.433   2.646   1.126  0.00  0.00    +0.000 A 
ATOM      6  I   UNL     1      11.562   2.597   1.043  0.00  0.00    +0.000 I 
ATOM      7  C   UNL     1       8.705   3.282   2.158  0.00  0.00    +0.000 A 
ATOM      8  C   UNL     1       7.290   3.458   1.918  0.00  0.00    +0.000 A 
ATOM      9  I   UNL     1       5.903   4.870   3.086  0.00  0.00    +0.000 I 
ENDROOT
BRANCH   1  12
ATOM     10  C   UNL     1       4.551   1.322   0.702  0.00  0.00    +0.000 C 
ATOM     11  O   UNL     1       5.158   0.266   0.530  0.00  0.00    +0.000 OA
ATOM     12  N   UNL     1       5.173   2.546   0.970  0.00  0.00    +0.000 N 
ATOM     13  H   UNL     1       4.672   3.162   1.605  0.00  0.00    +0.000 HD
BRANCH  10  14
ATOM     14  C   UNL     1       3.024   1.358   0.685  0.00  0.00    +0.000 C 
BRANCH  14  16
ATOM     15  C   UNL     1       0.931   0.033   0.078  0.00  0.00    +0.000 C 
ATOM     16  C   UNL     1       2.451   0.057   0.093  0.00  0.00    +0.000 C 
ENDBRANCH  14  16
ENDBRANCH  10  14
ENDBRANCH   1  12
BRANCH   7  17
ATOM     17  C   UNL     1       9.472   3.489   3.471  0.00  0.00    +0.000 C 
BRANCH  17  18
ATOM     18  C   UNL     1       8.653   3.664   4.735  0.00  0.00    +0.000 C 
BRANCH  18  19
ATOM     19  C   UNL     1       7.797   2.413   5.125  0.00  0.00    +0.000 C 
ATOM     20  C   UNL     1       7.029   1.590   4.081  0.00  0.00    +0.000 C 
ENDBRANCH  18  19
BRANCH  18  21
ATOM     21  C   UNL     1       9.387   4.164   5.984  0.00  0.00    +0.000 C 
ATOM     22  O   UNL     1       8.780   4.539   6.966  0.00  0.00    +0.000 OA
BRANCH  21  23
ATOM     23  O   UNL     1      10.734   4.211   5.947  0.00  0.00    +0.000 OA
ATOM     24  H   UNL     1      11.193   3.922   5.143  0.00  0.00    +0.000 HD
ENDBRANCH  21  23
ENDBRANCH  18  21
ENDBRANCH  17  18
ENDBRANCH   7  17
TORSDOF 8
