REMARK  Name = Ubrogepant
REMARK  6 active torsions:
REMARK  status: ('A' for Active; 'I' for Inactive)
REMARK    1  A    between atoms: C_1  and  C_2
REMARK    2  A    between atoms: C_3  and  C_35
REMARK    3  A    between atoms: C_5  and  N_6
REMARK    4  A    between atoms: C_7  and  C_9
REMARK    5  A    between atoms: N_29  and  C_30
REMARK    6  A    between atoms: C_30  and  C_31
REMARK                            x       y       z     vdW  Elec       q    Type
REMARK                         _______ _______ _______ _____ _____    ______ ____
ROOT
ATOM      1  N   UNL     1       2.674  -1.202  -4.204  0.00  0.00    +0.000 N 
ATOM      2  C   UNL     1       3.452  -2.122  -4.873  0.00  0.00    +0.000 C 
ATOM      3  O   UNL     1       4.478  -2.602  -4.401  0.00  0.00    +0.000 OA
ATOM      4  H   UNL     1       1.714  -1.058  -4.494  0.00  0.00    +0.000 HD
ENDROOT
BRANCH   2   5
ATOM      5  C   UNL     1       3.003  -2.550  -6.209  0.00  0.00    +0.000 A 
ATOM      6  C   UNL     1       2.520  -1.650  -7.159  0.00  0.00    +0.000 A 
ATOM      7  N   UNL     1       2.161  -1.995  -8.426  0.00  0.00    +0.000 NA
ATOM      8  C   UNL     1       2.323  -3.294  -8.737  0.00  0.00    +0.000 A 
ATOM      9  C   UNL     1       2.000  -3.881 -10.082  0.00  0.00    +0.000 C 
ATOM     10  C   UNL     1       2.294  -5.380  -9.874  0.00  0.00    +0.000 C 
ATOM     11  C   UNL     1       2.869  -5.610  -8.463  0.00  0.00    +0.000 C 
ATOM     12  C   UNL     1       2.800  -4.252  -7.857  0.00  0.00    +0.000 A 
ATOM     13  C   UNL     1       3.157  -3.887  -6.573  0.00  0.00    +0.000 A 
ATOM     14  C   UNL     1       3.284  -5.893 -10.931  0.00  0.00    +0.000 C 
ATOM     15  O   UNL     1       4.431  -5.492 -11.114  0.00  0.00    +0.000 OA
ATOM     16  N   UNL     1       2.661  -6.901 -11.639  0.00  0.00    +0.000 N 
ATOM     17  C   UNL     1       1.373  -7.116 -11.186  0.00  0.00    +0.000 A 
ATOM     18  N   UNL     1       0.522  -8.020 -11.673  0.00  0.00    +0.000 NA
ATOM     19  C   UNL     1      -0.690  -8.041 -11.060  0.00  0.00    +0.000 A 
ATOM     20  C   UNL     1      -1.060  -7.209 -10.000  0.00  0.00    +0.000 A 
ATOM     21  C   UNL     1      -0.138  -6.285  -9.523  0.00  0.00    +0.000 A 
ATOM     22  C   UNL     1       1.097  -6.248 -10.142  0.00  0.00    +0.000 A 
ATOM     23  H   UNL     1       3.087  -7.418 -12.392  0.00  0.00    +0.000 HD
ENDBRANCH   2   5
BRANCH   1  28
ATOM     24  C   UNL     1       0.884  -0.100   0.003  0.00  0.00    +0.000 C 
ATOM     25  C   UNL     1       2.417  -0.074  -0.087  0.00  0.00    +0.000 C 
ATOM     26  C   UNL     1       2.923   0.990  -1.081  0.00  0.00    +0.000 C 
ATOM     27  C   UNL     1       2.559   0.556  -2.519  0.00  0.00    +0.000 C 
ATOM     28  C   UNL     1       3.053  -0.839  -2.845  0.00  0.00    +0.000 C 
ATOM     29  C   UNL     1       2.568  -1.834  -1.771  0.00  0.00    +0.000 C 
ATOM     30  O   UNL     1       1.994  -2.894  -1.992  0.00  0.00    +0.000 OA
ATOM     31  N   UNL     1       2.913  -1.398  -0.494  0.00  0.00    +0.000 N 
BRANCH  26  32
ATOM     32  C   UNL     1       2.428   2.388  -0.750  0.00  0.00    +0.000 A 
ATOM     33  C   UNL     1       2.782   3.017   0.452  0.00  0.00    +0.000 A 
ATOM     34  C   UNL     1       2.499   4.371   0.632  0.00  0.00    +0.000 A 
ATOM     35  C   UNL     1       1.652   5.033  -0.254  0.00  0.00    +0.000 A 
ATOM     36  C   UNL     1       1.171   4.374  -1.374  0.00  0.00    +0.000 A 
ATOM     37  C   UNL     1       1.623   3.096  -1.655  0.00  0.00    +0.000 A 
ENDBRANCH  26  32
BRANCH  31  38
ATOM     38  C   UNL     1       3.687  -2.279   0.404  0.00  0.00    +0.000 C 
BRANCH  38  39
ATOM     39  C   UNL     1       4.041  -1.718   1.781  0.00  0.00    +0.000 C 
ATOM     40  F   UNL     1       4.746  -0.565   1.665  0.00  0.00    +0.000 F 
ATOM     41  F   UNL     1       2.924  -1.448   2.495  0.00  0.00    +0.000 F 
ATOM     42  F   UNL     1       4.792  -2.574   2.503  0.00  0.00    +0.000 F 
ENDBRANCH  38  39
ENDBRANCH  31  38
ENDBRANCH   1  28
TORSDOF 5
