REMARK  Name = Udenafil
REMARK  15 active torsions:
REMARK  status: ('A' for Active; 'I' for Inactive)
REMARK    1  A    between atoms: C_1  and  C_2
REMARK    2  A    between atoms: C_2  and  C_3
REMARK    3  A    between atoms: C_3  and  O_4
REMARK    4  A    between atoms: O_4  and  C_5
REMARK    5  A    between atoms: C_6  and  C_23
REMARK    6  A    between atoms: C_8  and  S_11
REMARK    7  A    between atoms: S_11  and  N_14
REMARK    8  A    between atoms: N_14  and  C_15
REMARK    9  A    between atoms: C_15  and  C_16
REMARK   10  A    between atoms: C_16  and  C_17
REMARK   11  A    between atoms: N_21  and  C_22
REMARK   12  A    between atoms: C_30  and  C_31
REMARK   13  A    between atoms: C_31  and  C_32
REMARK   14  A    between atoms: C_32  and  C_33
REMARK   15  A    between atoms: N_35  and  C_36
REMARK                            x       y       z     vdW  Elec       q    Type
REMARK                         _______ _______ _______ _____ _____    ______ ____
ROOT
ATOM      1  C   UNL     1       5.088  -1.756   1.829  0.00  0.00    +0.000 A 
ATOM      2  C   UNL     1       6.256  -1.283   2.437  0.00  0.00    +0.000 A 
ATOM      3  C   UNL     1       7.176  -2.191   2.995  0.00  0.00    +0.000 A 
ATOM      4  C   UNL     1       6.819  -3.543   3.134  0.00  0.00    +0.000 A 
ATOM      5  C   UNL     1       5.609  -4.004   2.619  0.00  0.00    +0.000 A 
ATOM      6  C   UNL     1       4.761  -3.113   1.945  0.00  0.00    +0.000 A 
ENDROOT
BRANCH   2   7
ATOM      7  C   UNL     1       6.507   0.198   2.537  0.00  0.00    +0.000 A 
ATOM      8  N   UNL     1       5.657   0.955   3.182  0.00  0.00    +0.000 NA
ATOM      9  C   UNL     1       5.888   2.324   3.302  0.00  0.00    +0.000 A 
ATOM     10  O   UNL     1       5.133   3.081   3.913  0.00  0.00    +0.000 OA
ATOM     11  C   UNL     1       7.079   2.781   2.655  0.00  0.00    +0.000 A 
ATOM     12  C   UNL     1       7.922   1.943   1.993  0.00  0.00    +0.000 A 
ATOM     13  N   UNL     1       7.659   0.632   1.944  0.00  0.00    +0.000 N 
ATOM     14  C   UNL     1       8.964   2.722   1.465  0.00  0.00    +0.000 A 
ATOM     15  N   UNL     1       8.793   4.015   1.802  0.00  0.00    +0.000 NA
ATOM     16  N   UNL     1       7.636   4.024   2.532  0.00  0.00    +0.000 N 
ATOM     17  C   UNL     1       7.134   5.269   3.073  0.00  0.00    +0.000 C 
ATOM     18  H   UNL     1       8.188  -0.049   1.423  0.00  0.00    +0.000 HD
BRANCH  14  19
ATOM     19  C   UNL     1      10.131   2.263   0.641  0.00  0.00    +0.000 C 
BRANCH  19  20
ATOM     20  C   UNL     1      10.099   0.753   0.378  0.00  0.00    +0.000 C 
ATOM     21  C   UNL     1      11.243   0.226  -0.444  0.00  0.00    +0.000 C 
ENDBRANCH  19  20
ENDBRANCH  14  19
ENDBRANCH   2   7
BRANCH   4  22
ATOM     22  S   UNL     1       7.882  -4.595   4.097  0.00  0.00    +0.000 S 
ATOM     23  O   UNL     1       9.080  -4.820   3.318  0.00  0.00    +0.000 OA
ATOM     24  O   UNL     1       7.927  -4.044   5.432  0.00  0.00    +0.000 OA
BRANCH  22  25
ATOM     25  N   UNL     1       7.089  -6.120   4.206  0.00  0.00    +0.000 NA
ATOM     26  H   UNL     1       7.045  -6.529   3.270  0.00  0.00    +0.000 HD
BRANCH  25  27
ATOM     27  C   UNL     1       7.849  -7.036   5.109  0.00  0.00    +0.000 C 
BRANCH  27  28
ATOM     28  C   UNL     1       7.202  -8.427   5.216  0.00  0.00    +0.000 C 
BRANCH  28  29
ATOM     29  C   UNL     1       8.181  -9.400   5.932  0.00  0.00    +0.000 C 
ATOM     30  C   UNL     1       7.518 -10.588   6.655  0.00  0.00    +0.000 C 
ATOM     31  C   UNL     1       7.693 -11.795   5.738  0.00  0.00    +0.000 C 
ATOM     32  C   UNL     1       8.341 -11.232   4.490  0.00  0.00    +0.000 C 
ATOM     33  N   UNL     1       9.100 -10.090   5.003  0.00  0.00    +0.000 NA
ATOM     34  C   UNL     1       9.641  -9.283   3.917  0.00  0.00    +0.000 C 
ENDBRANCH  28  29
ENDBRANCH  27  28
ENDBRANCH  25  27
ENDBRANCH  22  25
ENDBRANCH   4  22
BRANCH   1  35
ATOM     35  O   UNL     1       4.437  -0.892   0.989  0.00  0.00    +0.000 OA
BRANCH  35  36
ATOM     36  C   UNL     1       3.015  -0.971   0.974  0.00  0.00    +0.000 C 
BRANCH  36  38
ATOM     37  C   UNL     1       0.981   0.047  -0.087  0.00  0.00    +0.000 C 
ATOM     38  C   UNL     1       2.499   0.031  -0.058  0.00  0.00    +0.000 C 
ENDBRANCH  36  38
ENDBRANCH  35  36
ENDBRANCH   1  35
TORSDOF 11
