REMARK  Name = Ulipristal
REMARK  8 active torsions:
REMARK  status: ('A' for Active; 'I' for Inactive)
REMARK    1  A    between atoms: C_1  and  N_2
REMARK    2  A    between atoms: N_2  and  C_3
REMARK    3  A    between atoms: N_2  and  C_4
REMARK    4  A    between atoms: C_7  and  C_10
REMARK    5  A    between atoms: C_12  and  C_13
REMARK    6  A    between atoms: C_17  and  O_18
REMARK    7  A    between atoms: C_17  and  C_19
REMARK    8  A    between atoms: C_19  and  C_20
REMARK                            x       y       z     vdW  Elec       q    Type
REMARK                         _______ _______ _______ _____ _____    ______ ____
ROOT
ATOM      1  C   UNL     1       5.400  -4.942   0.444  0.00  0.00    +0.000 C 
ATOM      2  C   UNL     1       5.963  -5.394  -0.941  0.00  0.00    +0.000 C 
ATOM      3  C   UNL     1       6.557  -6.825  -1.069  0.00  0.00    +0.000 C 
ATOM      4  C   UNL     1       7.088  -6.845  -2.618  0.00  0.00    +0.000 C 
ATOM      5  C   UNL     1       5.540  -7.839  -0.506  0.00  0.00    +0.000 C 
ATOM      6  C   UNL     1       6.247  -9.221  -0.392  0.00  0.00    +0.000 C 
ATOM      7  C   UNL     1       7.314  -8.979  -1.392  0.00  0.00    +0.000 C 
ATOM      8  C   UNL     1       7.837  -7.433  -0.614  0.00  0.00    +0.000 C 
ATOM      9  C   UNL     1       5.089  -7.434   0.906  0.00  0.00    +0.000 C 
ATOM     10  C   UNL     1       4.365  -8.658   1.440  0.00  0.00    +0.000 C 
ATOM     11  C   UNL     1       3.005  -8.449   1.913  0.00  0.00    +0.000 C 
ATOM     12  C   UNL     1       2.658  -7.076   2.049  0.00  0.00    +0.000 C 
ATOM     13  C   UNL     1       2.090  -6.927   3.289  0.00  0.00    +0.000 C 
ATOM     14  C   UNL     1       0.728  -7.254   2.884  0.00  0.00    +0.000 C 
ATOM     15  O   UNL     1       0.232  -8.330   3.035  0.00  0.00    +0.000 OA
ATOM     16  C   UNL     1       0.200  -5.871   2.589  0.00  0.00    +0.000 C 
ATOM     17  C   UNL     1       1.679  -4.962   1.780  0.00  0.00    +0.000 C 
ATOM     18  C   UNL     1       3.066  -5.903   1.412  0.00  0.00    +0.000 C 
ATOM     19  C   UNL     1       4.373  -5.998   0.941  0.00  0.00    +0.000 C 
ENDROOT
BRANCH   1  23
ATOM     20  C   UNL     1       8.930  -4.455   3.026  0.00  0.00    +0.000 A 
ATOM     21  C   UNL     1       8.758  -3.691   1.863  0.00  0.00    +0.000 A 
ATOM     22  C   UNL     1       7.576  -3.746   1.105  0.00  0.00    +0.000 A 
ATOM     23  C   UNL     1       6.578  -4.681   1.408  0.00  0.00    +0.000 A 
ATOM     24  C   UNL     1       6.753  -5.418   2.584  0.00  0.00    +0.000 A 
ATOM     25  C   UNL     1       7.915  -5.346   3.347  0.00  0.00    +0.000 A 
BRANCH  20  27
ATOM     26  C   UNL     1      10.623  -5.421   4.530  0.00  0.00    +0.000 C 
ATOM     27  N   UNL     1      10.031  -4.286   3.845  0.00  0.00    +0.000 N 
ATOM     28  C   UNL     1      10.415  -2.934   4.217  0.00  0.00    +0.000 C 
ENDBRANCH  20  27
ENDBRANCH   1  23
BRANCH   8  29
ATOM     29  C   UNL     1       8.842  -8.105   0.302  0.00  0.00    +0.000 C 
ATOM     30  C   UNL     1      10.250  -8.005  -0.227  0.00  0.00    +0.000 C 
ATOM     31  O   UNL     1       8.614  -8.829   1.268  0.00  0.00    +0.000 OA
ENDBRANCH   8  29
BRANCH   8  32
ATOM     32  O   UNL     1       8.690  -6.276  -0.893  0.00  0.00    +0.000 OA
ATOM     33  H   UNL     1       8.348  -5.478  -0.421  0.00  0.00    +0.000 HD
ENDBRANCH   8  32
TORSDOF 4
