REMARK  Name = Ulobetasol
REMARK  7 active torsions:
REMARK  status: ('A' for Active; 'I' for Inactive)
REMARK    1  A    between atoms: C_4  and  C_5
REMARK    2  A    between atoms: C_6  and  O_7
REMARK    3  A    between atoms: C_6  and  C_8
REMARK    4  A    between atoms: C_8  and  C_10
REMARK    5  A    between atoms: C_12  and  C_13
REMARK    6  A    between atoms: C_15  and  O_16
REMARK    7  A    between atoms: C_30  and  C_31
REMARK                            x       y       z     vdW  Elec       q    Type
REMARK                         _______ _______ _______ _____ _____    ______ ____
ROOT
ATOM      1  C   UNL     1       1.798   0.037  -0.133  0.00  0.00    +0.000 C 
ATOM      2  C   UNL     1       2.188   0.153  -1.488  0.00  0.00    +0.000 C 
ATOM      3  C   UNL     1       3.348  -0.348  -0.702  0.00  0.00    +0.000 C 
ATOM      4  C   UNL     1       4.302  -0.207  -2.282  0.00  0.00    +0.000 C 
ATOM      5  C   UNL     1       2.813  -0.967   1.210  0.00  0.00    +0.000 C 
ATOM      6  C   UNL     1       2.741  -1.601   0.030  0.00  0.00    +0.000 C 
ATOM      7  C   UNL     1       1.930  -2.777  -0.353  0.00  0.00    +0.000 C 
ATOM      8  C   UNL     1       4.539  -1.597   0.503  0.00  0.00    +0.000 C 
ATOM      9  C   UNL     1       4.950  -0.011   1.353  0.00  0.00    +0.000 C 
ATOM     10  C   UNL     1       4.076   1.489   0.988  0.00  0.00    +0.000 C 
ATOM     11  F   UNL     1       3.948   1.565  -0.419  0.00  0.00    +0.000 F 
ATOM     12  C   UNL     1       2.444   1.398   0.933  0.00  0.00    +0.000 C 
ATOM     13  C   UNL     1       1.956   2.651   0.187  0.00  0.00    +0.000 C 
ATOM     14  C   UNL     1       2.637   3.889   0.664  0.00  0.00    +0.000 C 
ATOM     15  F   UNL     1       2.011   4.917   0.039  0.00  0.00    +0.000 F 
ATOM     16  C   UNL     1       4.067   3.846   0.192  0.00  0.00    +0.000 C 
ATOM     17  C   UNL     1       4.717   4.889  -0.369  0.00  0.00    +0.000 C 
ATOM     18  C   UNL     1       4.589   5.754   0.795  0.00  0.00    +0.000 C 
ATOM     19  O   UNL     1       3.790   6.655   0.924  0.00  0.00    +0.000 OA
ATOM     20  C   UNL     1       5.604   5.264   1.784  0.00  0.00    +0.000 C 
ATOM     21  C   UNL     1       5.777   3.869   1.846  0.00  0.00    +0.000 C 
ATOM     22  C   UNL     1       5.007   2.835   0.826  0.00  0.00    +0.000 C 
ATOM     23  C   UNL     1       5.874   2.393  -0.518  0.00  0.00    +0.000 C 
ENDROOT
BRANCH   5  24
ATOM     24  O   UNL     1       1.340  -0.913   1.700  0.00  0.00    +0.000 OA
ATOM     25  H   UNL     1       1.166  -1.031   2.641  0.00  0.00    +0.000 HD
ENDBRANCH   5  24
BRANCH   5  26
ATOM     26  C   UNL     1       2.992  -2.447   2.326  0.00  0.00    +0.000 C 
ATOM     27  O   UNL     1       3.437  -3.524   1.904  0.00  0.00    +0.000 OA
BRANCH  26  28
ATOM     28  C   UNL     1       2.510  -2.518   3.867  0.00  0.00    +0.000 C 
ATOM     29 CL   UNL     1       3.120  -4.141   4.571  0.00  0.00    +0.000 Cl
ENDBRANCH  26  28
ENDBRANCH   5  26
BRANCH   9  30
ATOM     30  O   UNL     1       4.870  -0.256   2.769  0.00  0.00    +0.000 OA
ATOM     31  H   UNL     1       3.956  -0.153   3.077  0.00  0.00    +0.000 HD
ENDBRANCH   9  30
TORSDOF 4
