REMARK  Name = Umbralisib
REMARK  9 active torsions:
REMARK  status: ('A' for Active; 'I' for Inactive)
REMARK    1  A    between atoms: C_1  and  C_2
REMARK    2  A    between atoms: C_2  and  C_3
REMARK    3  A    between atoms: C_2  and  O_4
REMARK    4  A    between atoms: O_4  and  C_5
REMARK    5  A    between atoms: C_9  and  C_12
REMARK    6  A    between atoms: N_14  and  C_15
REMARK    7  A    between atoms: C_15  and  C_16
REMARK    8  A    between atoms: C_15  and  C_17
REMARK    9  A    between atoms: C_18  and  C_19
REMARK                            x       y       z     vdW  Elec       q    Type
REMARK                         _______ _______ _______ _____ _____    ______ ____
ROOT
ATOM      1  C   UNL     1       8.801  -0.463  -2.356  0.00  0.00    +0.000 A 
ATOM      2  N   UNL     1       9.637   0.550  -2.679  0.00  0.00    +0.000 NA
ATOM      3  N   UNL     1      10.909  -0.043  -2.886  0.00  0.00    +0.000 N 
ATOM      4  C   UNL     1      10.833  -1.386  -2.685  0.00  0.00    +0.000 A 
ATOM      5  C   UNL     1       9.498  -1.704  -2.435  0.00  0.00    +0.000 A 
ATOM      6  C   UNL     1       9.168  -3.066  -2.349  0.00  0.00    +0.000 A 
ATOM      7  N   UNL     1       7.895  -3.561  -2.158  0.00  0.00    +0.000 N 
ATOM      8  N   UNL     1      10.164  -3.963  -2.489  0.00  0.00    +0.000 NA
ATOM      9  C   UNL     1      11.422  -3.511  -2.681  0.00  0.00    +0.000 A 
ATOM     10  N   UNL     1      11.849  -2.245  -2.780  0.00  0.00    +0.000 NA
ATOM     11  H   UNL     1       7.076  -2.976  -2.182  0.00  0.00    +0.000 HD
ATOM     12  H   UNL     1       7.772  -4.562  -2.196  0.00  0.00    +0.000 HD
ENDROOT
BRANCH   1  17
ATOM     13  C   UNL     1       4.511  -0.362  -1.519  0.00  0.00    +0.000 A 
ATOM     14  C   UNL     1       5.426  -1.058  -0.734  0.00  0.00    +0.000 A 
ATOM     15  F   UNL     1       5.025  -2.007   0.122  0.00  0.00    +0.000 F 
ATOM     16  C   UNL     1       6.810  -0.952  -0.912  0.00  0.00    +0.000 A 
ATOM     17  C   UNL     1       7.350  -0.307  -2.032  0.00  0.00    +0.000 A 
ATOM     18  C   UNL     1       6.430   0.279  -2.918  0.00  0.00    +0.000 A 
ATOM     19  C   UNL     1       5.029   0.268  -2.657  0.00  0.00    +0.000 A 
BRANCH  13  20
ATOM     20  O   UNL     1       3.148  -0.396  -1.330  0.00  0.00    +0.000 OA
BRANCH  20  22
ATOM     21  C   UNL     1       1.112   0.059  -0.083  0.00  0.00    +0.000 C 
ATOM     22  C   UNL     1       2.648   0.025  -0.031  0.00  0.00    +0.000 C 
ATOM     23  C   UNL     1       2.998  -0.911   1.123  0.00  0.00    +0.000 C 
ENDBRANCH  20  22
ENDBRANCH  13  20
ENDBRANCH   1  17
BRANCH   3  24
ATOM     24  C   UNL     1      12.157   0.876  -3.086  0.00  0.00    +0.000 C 
ATOM     25  C   UNL     1      11.905   1.735  -1.722  0.00  0.00    +0.000 C 
BRANCH  24  26
ATOM     26  C   UNL     1      13.856   0.341  -3.315  0.00  0.00    +0.000 A 
ATOM     27  C   UNL     1      14.508   0.986  -2.355  0.00  0.00    +0.000 A 
ATOM     28  C   UNL     1      15.612   0.032  -2.159  0.00  0.00    +0.000 A 
ATOM     29  O   UNL     1      15.604  -1.151  -1.919  0.00  0.00    +0.000 OA
ATOM     30  C   UNL     1      16.733   0.585  -2.789  0.00  0.00    +0.000 A 
ATOM     31  C   UNL     1      17.399   1.665  -2.187  0.00  0.00    +0.000 A 
ATOM     32  C   UNL     1      18.427   2.276  -2.832  0.00  0.00    +0.000 A 
ATOM     33  F   UNL     1      19.091   3.262  -2.213  0.00  0.00    +0.000 F 
ATOM     34  C   UNL     1      18.772   1.749  -4.061  0.00  0.00    +0.000 A 
ATOM     35  C   UNL     1      17.838   0.845  -4.780  0.00  0.00    +0.000 A 
ATOM     36  C   UNL     1      16.655   0.323  -4.132  0.00  0.00    +0.000 A 
ATOM     37  O   UNL     1      15.029   0.290  -4.586  0.00  0.00    +0.000 OA
BRANCH  27  38
ATOM     38  C   UNL     1      14.689   2.465  -2.753  0.00  0.00    +0.000 A 
ATOM     39  C   UNL     1      14.306   3.326  -1.741  0.00  0.00    +0.000 A 
ATOM     40  C   UNL     1      14.142   4.682  -1.972  0.00  0.00    +0.000 A 
ATOM     41  C   UNL     1      14.691   5.260  -3.104  0.00  0.00    +0.000 A 
ATOM     42  C   UNL     1      15.273   4.448  -4.058  0.00  0.00    +0.000 A 
ATOM     43  F   UNL     1      15.962   5.000  -5.066  0.00  0.00    +0.000 F 
ATOM     44  C   UNL     1      15.181   3.063  -3.950  0.00  0.00    +0.000 A 
ENDBRANCH  27  38
ENDBRANCH  24  26
ENDBRANCH   3  24
TORSDOF 6
