REMARK  Name = Umeclidinium
REMARK  9 active torsions:
REMARK  status: ('A' for Active; 'I' for Inactive)
REMARK    1  A    between atoms: O_1  and  C_2
REMARK    2  A    between atoms: C_2  and  C_3
REMARK    3  A    between atoms: C_2  and  C_9
REMARK    4  A    between atoms: C_2  and  C_15
REMARK    5  A    between atoms: N_18  and  C_19
REMARK    6  A    between atoms: C_19  and  C_20
REMARK    7  A    between atoms: C_20  and  O_21
REMARK    8  A    between atoms: O_21  and  C_22
REMARK    9  A    between atoms: C_22  and  C_23
REMARK                            x       y       z     vdW  Elec       q    Type
REMARK                         _______ _______ _______ _____ _____    ______ ____
ROOT
ATOM      1  C   UNL     1       2.980  -0.448   1.407  0.00  0.00    +0.000 C 
ATOM      2  C   UNL     1       3.109  -1.977   1.571  0.00  0.00    +0.000 C 
ATOM      3  C   UNL     1       3.527  -2.404   2.947  0.00  0.00    +0.000 C 
ATOM      4  N   UNL     1       3.658  -1.181   3.831  0.00  0.00    +0.000 N 
ATOM      5  C   UNL     1       2.346  -0.389   3.865  0.00  0.00    +0.000 C 
ATOM      6  C   UNL     1       1.953   0.032   2.464  0.00  0.00    +0.000 C 
ATOM      7  C   UNL     1       4.753  -0.295   3.257  0.00  0.00    +0.000 C 
ATOM      8  C   UNL     1       4.357   0.125   1.851  0.00  0.00    +0.000 C 
ENDROOT
BRANCH   1   9
ATOM      9  C   UNL     1       2.500  -0.022  -0.064  0.00  0.00    +0.000 C 
BRANCH   9  10
ATOM     10  C   UNL     1       2.871  -1.022  -1.181  0.00  0.00    +0.000 A 
ATOM     11  C   UNL     1       2.349  -2.335  -1.162  0.00  0.00    +0.000 A 
ATOM     12  C   UNL     1       2.879  -3.342  -1.969  0.00  0.00    +0.000 A 
ATOM     13  C   UNL     1       3.812  -3.022  -2.936  0.00  0.00    +0.000 A 
ATOM     14  C   UNL     1       4.222  -1.704  -3.093  0.00  0.00    +0.000 A 
ATOM     15  C   UNL     1       3.734  -0.720  -2.234  0.00  0.00    +0.000 A 
ENDBRANCH   9  10
BRANCH   9  16
ATOM     16  C   UNL     1       2.941   1.437  -0.303  0.00  0.00    +0.000 A 
ATOM     17  C   UNL     1       4.293   1.751  -0.586  0.00  0.00    +0.000 A 
ATOM     18  C   UNL     1       4.736   3.061  -0.722  0.00  0.00    +0.000 A 
ATOM     19  C   UNL     1       3.830   4.094  -0.576  0.00  0.00    +0.000 A 
ATOM     20  C   UNL     1       2.499   3.823  -0.258  0.00  0.00    +0.000 A 
ATOM     21  C   UNL     1       2.057   2.505  -0.116  0.00  0.00    +0.000 A 
ENDBRANCH   9  16
BRANCH   9  22
ATOM     22  O   UNL     1       1.058  -0.069  -0.050  0.00  0.00    +0.000 OA
ATOM     23  H   UNL     1       0.764   0.198  -0.941  0.00  0.00    +0.000 HD
ENDBRANCH   9  22
ENDBRANCH   1   9
BRANCH   4  24
ATOM     24  C   UNL     1       4.063  -1.616   5.237  0.00  0.00    +0.000 C 
BRANCH  24  25
ATOM     25  C   UNL     1       3.008  -2.532   5.839  0.00  0.00    +0.000 C 
BRANCH  25  26
ATOM     26  O   UNL     1       3.395  -2.951   7.124  0.00  0.00    +0.000 OA
BRANCH  26  27
ATOM     27  C   UNL     1       2.370  -3.805   7.623  0.00  0.00    +0.000 C 
BRANCH  27  28
ATOM     28  C   UNL     1       2.723  -4.206   9.008  0.00  0.00    +0.000 A 
ATOM     29  C   UNL     1       2.733  -5.559   9.354  0.00  0.00    +0.000 A 
ATOM     30  C   UNL     1       2.866  -5.923  10.687  0.00  0.00    +0.000 A 
ATOM     31  C   UNL     1       3.056  -4.942  11.661  0.00  0.00    +0.000 A 
ATOM     32  C   UNL     1       3.111  -3.595  11.308  0.00  0.00    +0.000 A 
ATOM     33  C   UNL     1       2.940  -3.225   9.982  0.00  0.00    +0.000 A 
ENDBRANCH  27  28
ENDBRANCH  26  27
ENDBRANCH  25  26
ENDBRANCH  24  25
ENDBRANCH   4  24
TORSDOF 9
