REMARK  Name = Undecoylium chloride iodine complex
REMARK  8 active torsions:
REMARK  status: ('A' for Active; 'I' for Inactive)
REMARK    1  A    between atoms: C_2  and  C_3
REMARK    2  A    between atoms: C_3  and  C_4
REMARK    3  A    between atoms: C_4  and  O_6
REMARK    4  A    between atoms: O_6  and  C_7
REMARK    5  A    between atoms: C_7  and  C_8
REMARK    6  A    between atoms: C_8  and  N_9
REMARK    7  A    between atoms: C_10  and  C_12
REMARK    8  A    between atoms: C_12  and  N_13
REMARK                            x       y       z     vdW  Elec       q    Type
REMARK                         _______ _______ _______ _____ _____    ______ ____
ROOT
ATOM      1 CL   UNL     1       0.634  -2.747  -1.062  0.00  0.00    +0.000 Cl
ENDROOT
TORSDOF 0
REMARK  Name = Undecoylium chloride iodine complex
REMARK  8 active torsions:
REMARK  status: ('A' for Active; 'I' for Inactive)
REMARK    1  A    between atoms: C_2  and  C_3
REMARK    2  A    between atoms: C_3  and  C_4
REMARK    3  A    between atoms: C_4  and  O_6
REMARK    4  A    between atoms: O_6  and  C_7
REMARK    5  A    between atoms: C_7  and  C_8
REMARK    6  A    between atoms: C_8  and  N_9
REMARK    7  A    between atoms: C_10  and  C_12
REMARK    8  A    between atoms: C_12  and  N_13
REMARK                            x       y       z     vdW  Elec       q    Type
REMARK                         _______ _______ _______ _____ _____    ______ ____
ROOT
ATOM      1  N   UNL     2       7.010   0.944   4.284  0.00  0.00    +0.000 N 
ATOM      2  C   UNL     2       8.375   0.934   4.468  0.00  0.00    +0.000 C 
ATOM      3  O   UNL     2       9.132   0.684   3.530  0.00  0.00    +0.000 OA
ATOM      4  H   UNL     2       6.354   1.080   5.045  0.00  0.00    +0.000 HD
ENDROOT
BRANCH   1   5
ATOM      5  C   UNL     2       6.467   0.660   2.950  0.00  0.00    +0.000 C 
BRANCH   5   6
ATOM      6  C   UNL     2       4.946   0.655   2.900  0.00  0.00    +0.000 C 
BRANCH   6   7
ATOM      7  O   UNL     2       4.488   0.426   1.562  0.00  0.00    +0.000 OA
BRANCH   7   8
ATOM      8  C   UNL     2       3.122   0.452   1.494  0.00  0.00    +0.000 C 
ATOM      9  O   UNL     2       2.411   0.630   2.485  0.00  0.00    +0.000 OA
BRANCH   8  11
ATOM     10  C   UNL     2       1.115   0.505   0.061  0.00  0.00    +0.000 C 
ATOM     11  C   UNL     2       2.624   0.293   0.084  0.00  0.00    +0.000 C 
ENDBRANCH   8  11
ENDBRANCH   7   8
ENDBRANCH   6   7
ENDBRANCH   5   6
ENDBRANCH   1   5
BRANCH   2  12
ATOM     12  C   UNL     2       8.912   1.275   5.862  0.00  0.00    +0.000 C 
BRANCH  12  13
ATOM     13  N   UNL     2      10.409   1.311   5.904  0.00  0.00    +0.000 N 
ATOM     14  C   UNL     2      11.104   1.869   4.879  0.00  0.00    +0.000 A 
ATOM     15  C   UNL     2      12.471   1.666   4.750  0.00  0.00    +0.000 A 
ATOM     16  C   UNL     2      13.164   1.056   5.781  0.00  0.00    +0.000 A 
ATOM     17  C   UNL     2      12.472   0.663   6.918  0.00  0.00    +0.000 A 
ATOM     18  C   UNL     2      11.080   0.743   6.936  0.00  0.00    +0.000 A 
ENDBRANCH  12  13
ENDBRANCH   2  12
TORSDOF 7
