REMARK  Name = Undecylenic acid
REMARK  10 active torsions:
REMARK  status: ('A' for Active; 'I' for Inactive)
REMARK    1  A    between atoms: O_1  and  C_2
REMARK    2  A    between atoms: C_2  and  C_4
REMARK    3  A    between atoms: C_4  and  C_5
REMARK    4  A    between atoms: C_5  and  C_6
REMARK    5  A    between atoms: C_6  and  C_7
REMARK    6  A    between atoms: C_7  and  C_8
REMARK    7  A    between atoms: C_8  and  C_9
REMARK    8  A    between atoms: C_9  and  C_10
REMARK    9  A    between atoms: C_10  and  C_11
REMARK   10  A    between atoms: C_11  and  C_12
REMARK                            x       y       z     vdW  Elec       q    Type
REMARK                         _______ _______ _______ _____ _____    ______ ____
ROOT
ATOM      1  C   UNL     1       5.370  -0.329  -2.279  0.00  0.00    +0.000 C 
ENDROOT
BRANCH   1   2
ATOM      2  C   UNL     1       4.596  -0.183  -0.977  0.00  0.00    +0.000 C 
BRANCH   2   3
ATOM      3  C   UNL     1       3.083  -0.208  -1.197  0.00  0.00    +0.000 C 
BRANCH   3   4
ATOM      4  C   UNL     1       2.372  -0.059   0.130  0.00  0.00    +0.000 C 
ATOM      5  O   UNL     1       2.935   0.061   1.210  0.00  0.00    +0.000 OA
BRANCH   4   6
ATOM      6  O   UNL     1       1.025  -0.070   0.033  0.00  0.00    +0.000 OA
ATOM      7  H   UNL     1       0.671  -0.171  -0.870  0.00  0.00    +0.000 HD
ENDBRANCH   4   6
ENDBRANCH   3   4
ENDBRANCH   2   3
ENDBRANCH   1   2
BRANCH   1   8
ATOM      8  C   UNL     1       6.871  -0.299  -2.008  0.00  0.00    +0.000 C 
BRANCH   8   9
ATOM      9  C   UNL     1       7.646  -0.444  -3.308  0.00  0.00    +0.000 C 
BRANCH   9  10
ATOM     10  C   UNL     1       9.144  -0.415  -3.042  0.00  0.00    +0.000 C 
BRANCH  10  11
ATOM     11  C   UNL     1       9.913  -0.561  -4.348  0.00  0.00    +0.000 C 
BRANCH  11  12
ATOM     12  C   UNL     1      11.415  -0.532  -4.087  0.00  0.00    +0.000 C 
BRANCH  12  13
ATOM     13  C   UNL     1      12.191  -0.674  -5.360  0.00  0.00    +0.000 C 
ATOM     14  C   UNL     1      13.528  -0.677  -5.382  0.00  0.00    +0.000 C 
ENDBRANCH  12  13
ENDBRANCH  11  12
ENDBRANCH  10  11
ENDBRANCH   9  10
ENDBRANCH   8   9
ENDBRANCH   1   8
TORSDOF 10
