REMARK  Name = Unoprostone
REMARK  19 active torsions:
REMARK  status: ('A' for Active; 'I' for Inactive)
REMARK    1  A    between atoms: C_1  and  C_2
REMARK    2  A    between atoms: C_2  and  C_3
REMARK    3  A    between atoms: C_3  and  C_4
REMARK    4  A    between atoms: C_4  and  C_5
REMARK    5  A    between atoms: C_5  and  C_6
REMARK    6  A    between atoms: C_6  and  C_7
REMARK    7  A    between atoms: C_7  and  C_8
REMARK    8  A    between atoms: C_8  and  C_10
REMARK    9  A    between atoms: C_10  and  C_11
REMARK   10  A    between atoms: C_11  and  C_12
REMARK   11  A    between atoms: C_13  and  O_14
REMARK   12  A    between atoms: C_16  and  O_17
REMARK   13  A    between atoms: C_18  and  C_19
REMARK   14  A    between atoms: C_19  and  C_20
REMARK   15  A    between atoms: C_21  and  C_22
REMARK   16  A    between atoms: C_22  and  C_23
REMARK   17  A    between atoms: C_23  and  C_24
REMARK   18  A    between atoms: C_24  and  C_25
REMARK   19  A    between atoms: C_25  and  O_26
REMARK                            x       y       z     vdW  Elec       q    Type
REMARK                         _______ _______ _______ _____ _____    ______ ____
ROOT
ATOM      1  C   UNL     1      11.641   4.717   4.719  0.00  0.00    +0.000 C 
ATOM      2  C   UNL     1      11.215   4.492   6.182  0.00  0.00    +0.000 C 
ATOM      3  C   UNL     1      11.140   5.864   6.847  0.00  0.00    +0.000 C 
ATOM      4  C   UNL     1      11.552   6.878   5.782  0.00  0.00    +0.000 C 
ATOM      5  C   UNL     1      11.253   6.190   4.442  0.00  0.00    +0.000 C 
ENDROOT
BRANCH   4   6
ATOM      6  O   UNL     1      10.890   8.119   5.954  0.00  0.00    +0.000 OA
ATOM      7  H   UNL     1       9.931   7.972   5.995  0.00  0.00    +0.000 HD
ENDBRANCH   4   6
BRANCH   2   8
ATOM      8  O   UNL     1       9.973   3.799   6.252  0.00  0.00    +0.000 OA
ATOM      9  H   UNL     1       9.287   4.289   5.776  0.00  0.00    +0.000 HD
ENDBRANCH   2   8
BRANCH   1  10
ATOM     10  C   UNL     1      13.141   4.500   4.486  0.00  0.00    +0.000 C 
BRANCH  10  11
ATOM     11  C   UNL     1      13.631   3.156   5.019  0.00  0.00    +0.000 C 
BRANCH  11  12
ATOM     12  C   UNL     1      15.104   2.990   4.776  0.00  0.00    +0.000 C 
ATOM     13  O   UNL     1      15.764   3.844   4.185  0.00  0.00    +0.000 OA
BRANCH  12  14
ATOM     14  C   UNL     1      15.721   1.730   5.339  0.00  0.00    +0.000 C 
BRANCH  14  15
ATOM     15  C   UNL     1      17.205   1.723   5.028  0.00  0.00    +0.000 C 
BRANCH  15  16
ATOM     16  C   UNL     1      17.873   0.470   5.554  0.00  0.00    +0.000 C 
BRANCH  16  17
ATOM     17  C   UNL     1      19.355   0.503   5.211  0.00  0.00    +0.000 C 
BRANCH  17  18
ATOM     18  C   UNL     1      20.038  -0.751   5.730  0.00  0.00    +0.000 C 
BRANCH  18  20
ATOM     19  C   UNL     1      22.198  -1.983   5.913  0.00  0.00    +0.000 C 
ATOM     20  C   UNL     1      21.522  -0.730   5.393  0.00  0.00    +0.000 C 
ENDBRANCH  18  20
ENDBRANCH  17  18
ENDBRANCH  16  17
ENDBRANCH  15  16
ENDBRANCH  14  15
ENDBRANCH  12  14
ENDBRANCH  11  12
ENDBRANCH  10  11
ENDBRANCH   1  10
BRANCH   5  21
ATOM     21  C   UNL     1       9.786   6.337   4.044  0.00  0.00    +0.000 C 
BRANCH  21  22
ATOM     22  C   UNL     1       9.462   5.654   2.752  0.00  0.00    +0.000 C 
ATOM     23  C   UNL     1       8.209   5.597   2.287  0.00  0.00    +0.000 C 
BRANCH  23  24
ATOM     24  C   UNL     1       7.063   6.219   3.028  0.00  0.00    +0.000 C 
BRANCH  24  25
ATOM     25  C   UNL     1       5.775   6.037   2.255  0.00  0.00    +0.000 C 
BRANCH  25  26
ATOM     26  C   UNL     1       4.598   6.659   2.986  0.00  0.00    +0.000 C 
BRANCH  26  27
ATOM     27  C   UNL     1       3.271   6.519   2.281  0.00  0.00    +0.000 C 
ATOM     28  O   UNL     1       2.236   6.976   2.760  0.00  0.00    +0.000 OA
BRANCH  27  29
ATOM     29  O   UNL     1       3.261   5.872   1.101  0.00  0.00    +0.000 OA
ATOM     30  H   UNL     1       4.107   5.530   0.761  0.00  0.00    +0.000 HD
ENDBRANCH  27  29
ENDBRANCH  26  27
ENDBRANCH  25  26
ENDBRANCH  24  25
ENDBRANCH  23  24
ENDBRANCH  21  22
ENDBRANCH   5  21
TORSDOF 18
