REMARK  Name = Upadacitinib
REMARK  5 active torsions:
REMARK  status: ('A' for Active; 'I' for Inactive)
REMARK    1  A    between atoms: C_1  and  C_2
REMARK    2  A    between atoms: C_2  and  C_3
REMARK    3  A    between atoms: C_7  and  C_8
REMARK    4  A    between atoms: N_22  and  C_23
REMARK    5  A    between atoms: C_23  and  C_24
REMARK                            x       y       z     vdW  Elec       q    Type
REMARK                         _______ _______ _______ _____ _____    ______ ____
ROOT
ATOM      1  C   UNL     1       3.012  -1.344   0.190  0.00  0.00    +0.000 C 
ATOM      2  C   UNL     1       3.925  -1.686  -0.986  0.00  0.00    +0.000 C 
ATOM      3  N   UNL     1       4.152  -3.112  -0.853  0.00  0.00    +0.000 N 
ATOM      4  C   UNL     1       3.005  -3.747  -0.206  0.00  0.00    +0.000 C 
ATOM      5  C   UNL     1       2.097  -2.592   0.274  0.00  0.00    +0.000 C 
ATOM      6  C   UNL     1       5.266  -3.832  -1.205  0.00  0.00    +0.000 C 
ATOM      7  O   UNL     1       5.365  -5.044  -0.994  0.00  0.00    +0.000 OA
ATOM      8  N   UNL     1       6.280  -3.126  -1.789  0.00  0.00    +0.000 N 
ATOM      9  H   UNL     1       6.161  -2.145  -1.985  0.00  0.00    +0.000 HD
ENDROOT
BRANCH   5  10
ATOM     10  C   UNL     1       0.824  -2.523  -0.511  0.00  0.00    +0.000 A 
ATOM     11  C   UNL     1       0.596  -2.345  -1.868  0.00  0.00    +0.000 A 
ATOM     12  N   UNL     1      -0.738  -2.146  -2.147  0.00  0.00    +0.000 NA
ATOM     13  C   UNL     1      -1.336  -2.237  -0.977  0.00  0.00    +0.000 A 
ATOM     14  C   UNL     1      -2.749  -2.070  -0.676  0.00  0.00    +0.000 A 
ATOM     15  N   UNL     1      -3.239  -2.146   0.543  0.00  0.00    +0.000 NA
ATOM     16  C   UNL     1      -2.295  -2.377   1.503  0.00  0.00    +0.000 A 
ATOM     17  C   UNL     1      -0.933  -2.533   1.351  0.00  0.00    +0.000 A 
ATOM     18  C   UNL     1      -0.334  -2.682   2.606  0.00  0.00    +0.000 A 
ATOM     19  C   UNL     1      -1.363  -2.683   3.521  0.00  0.00    +0.000 A 
ATOM     20  N   UNL     1      -2.551  -2.500   2.846  0.00  0.00    +0.000 N 
ATOM     21  N   UNL     1      -0.438  -2.478   0.040  0.00  0.00    +0.000 N 
ATOM     22  H   UNL     1      -3.466  -2.465   3.271  0.00  0.00    +0.000 HD
ENDBRANCH   5  10
BRANCH   1  24
ATOM     23  C   UNL     1       0.992   0.317   0.136  0.00  0.00    +0.000 C 
ATOM     24  C   UNL     1       2.487   0.102   0.082  0.00  0.00    +0.000 C 
ENDBRANCH   1  24
BRANCH   8  25
ATOM     25  C   UNL     1       7.542  -3.755  -2.206  0.00  0.00    +0.000 C 
BRANCH  25  26
ATOM     26  C   UNL     1       8.552  -2.804  -2.851  0.00  0.00    +0.000 C 
ATOM     27  F   UNL     1       8.038  -2.228  -3.962  0.00  0.00    +0.000 F 
ATOM     28  F   UNL     1       8.895  -1.807  -2.004  0.00  0.00    +0.000 F 
ATOM     29  F   UNL     1       9.685  -3.446  -3.209  0.00  0.00    +0.000 F 
ENDBRANCH  25  26
ENDBRANCH   8  25
TORSDOF 4
