REMARK  Name = Uracil mustard
REMARK  5 active torsions:
REMARK  status: ('A' for Active; 'I' for Inactive)
REMARK    1  A    between atoms: C_2  and  C_3
REMARK    2  A    between atoms: C_3  and  N_4
REMARK    3  A    between atoms: N_4  and  C_5
REMARK    4  A    between atoms: N_4  and  C_8
REMARK    5  A    between atoms: C_5  and  C_6
REMARK                            x       y       z     vdW  Elec       q    Type
REMARK                         _______ _______ _______ _____ _____    ______ ____
ROOT
ATOM      1  C   UNL     1       5.475  -1.463   2.172  0.00  0.00    +0.000 A 
ATOM      2  C   UNL     1       6.497  -0.927   2.866  0.00  0.00    +0.000 A 
ATOM      3  N   UNL     1       7.115  -1.563   3.908  0.00  0.00    +0.000 N 
ATOM      4  C   UNL     1       6.780  -2.811   4.348  0.00  0.00    +0.000 A 
ATOM      5  O   UNL     1       7.352  -3.347   5.284  0.00  0.00    +0.000 OA
ATOM      6  N   UNL     1       5.762  -3.410   3.669  0.00  0.00    +0.000 N 
ATOM      7  C   UNL     1       5.083  -2.873   2.611  0.00  0.00    +0.000 A 
ATOM      8  O   UNL     1       4.216  -3.536   2.042  0.00  0.00    +0.000 OA
ATOM      9  H   UNL     1       7.855  -1.103   4.428  0.00  0.00    +0.000 HD
ATOM     10  H   UNL     1       5.505  -4.341   3.955  0.00  0.00    +0.000 HD
ENDROOT
BRANCH   1  11
ATOM     11  N   UNL     1       4.775  -0.807   1.115  0.00  0.00    +0.000 N 
BRANCH  11  12
ATOM     12  C   UNL     1       3.269  -0.871   1.160  0.00  0.00    +0.000 C 
BRANCH  12  14
ATOM     13 CL   UNL     1       0.696  -0.270   0.274  0.00  0.00    +0.000 Cl
ATOM     14  C   UNL     1       2.459  -0.158   0.090  0.00  0.00    +0.000 C 
ENDBRANCH  12  14
ENDBRANCH  11  12
BRANCH  11  15
ATOM     15  C   UNL     1       5.599  -0.130   0.053  0.00  0.00    +0.000 C 
BRANCH  15  16
ATOM     16  C   UNL     1       4.894   0.595  -1.084  0.00  0.00    +0.000 C 
ATOM     17 CL   UNL     1       5.967   1.371  -2.268  0.00  0.00    +0.000 Cl
ENDBRANCH  15  16
ENDBRANCH  11  15
ENDBRANCH   1  11
TORSDOF 5
