REMARK  Name = Urea
REMARK  0 active torsions:
REMARK  status: ('A' for Active; 'I' for Inactive)
REMARK                            x       y       z     vdW  Elec       q    Type
REMARK                         _______ _______ _______ _____ _____    ______ ____
ROOT
ATOM      1  N   UNL     1       1.072  -0.023   0.007  0.00  0.00    +0.000 N 
ATOM      2  C   UNL     1       2.416  -0.068   0.050  0.00  0.00    +0.000 C 
ATOM      3  N   UNL     1       3.034   0.793  -0.779  0.00  0.00    +0.000 N 
ATOM      4  O   UNL     1       3.027  -0.831   0.784  0.00  0.00    +0.000 OA
ATOM      5  H   UNL     1       0.552   0.598  -0.590  0.00  0.00    +0.000 HD
ATOM      6  H   UNL     1       0.571  -0.655   0.615  0.00  0.00    +0.000 HD
ATOM      7  H   UNL     1       2.548   1.428  -1.390  0.00  0.00    +0.000 HD
ATOM      8  H   UNL     1       4.044   0.790  -0.775  0.00  0.00    +0.000 HD
ENDROOT
TORSDOF 0
