REMARK  Name = Urea C-13
REMARK  0 active torsions:
REMARK  status: ('A' for Active; 'I' for Inactive)
REMARK                            x       y       z     vdW  Elec       q    Type
REMARK                         _______ _______ _______ _____ _____    ______ ____
ROOT
ATOM      1  N   UNL     1       1.191  -0.013  -0.006  0.00  0.00    +0.000 N 
ATOM      2  C   UNL     1       2.535  -0.059  -0.050  0.00  0.00    +0.000 C 
ATOM      3  N   UNL     1       3.153   0.801   0.781  0.00  0.00    +0.000 N 
ATOM      4  O   UNL     1       3.146  -0.819  -0.785  0.00  0.00    +0.000 OA
ATOM      5  H   UNL     1       0.671   0.606   0.593  0.00  0.00    +0.000 HD
ATOM      6  H   UNL     1       0.690  -0.644  -0.616  0.00  0.00    +0.000 HD
ATOM      7  H   UNL     1       2.667   1.434   1.394  0.00  0.00    +0.000 HD
ATOM      8  H   UNL     1       4.163   0.797   0.778  0.00  0.00    +0.000 HD
ENDROOT
TORSDOF 0
