REMARK  Name = Urea C-14
REMARK  0 active torsions:
REMARK  status: ('A' for Active; 'I' for Inactive)
REMARK                            x       y       z     vdW  Elec       q    Type
REMARK                         _______ _______ _______ _____ _____    ______ ____
ROOT
ATOM      1  N   UNL     1       1.118  -0.134  -0.068  0.00  0.00    +0.000 N 
ATOM      2  C   UNL     1       2.462  -0.098  -0.016  0.00  0.00    +0.000 C 
ATOM      3  N   UNL     1       3.079  -0.793  -0.989  0.00  0.00    +0.000 N 
ATOM      4  O   UNL     1       3.073   0.517   0.844  0.00  0.00    +0.000 OA
ATOM      5  H   UNL     1       0.598  -0.635  -0.768  0.00  0.00    +0.000 HD
ATOM      6  H   UNL     1       0.617   0.376   0.646  0.00  0.00    +0.000 HD
ATOM      7  H   UNL     1       2.594  -1.305  -1.706  0.00  0.00    +0.000 HD
ATOM      8  H   UNL     1       4.090  -0.790  -0.985  0.00  0.00    +0.000 HD
ENDROOT
TORSDOF 0
