REMARK  Name = Urethane
REMARK  3 active torsions:
REMARK  status: ('A' for Active; 'I' for Inactive)
REMARK    1  A    between atoms: C_1  and  C_2
REMARK    2  A    between atoms: C_2  and  O_3
REMARK    3  A    between atoms: O_3  and  C_4
REMARK                            x       y       z     vdW  Elec       q    Type
REMARK                         _______ _______ _______ _____ _____    ______ ____
ROOT
ATOM      1  C   UNL     1       4.315  -0.104  -1.533  0.00  0.00    +0.000 C 
ATOM      2  N   UNL     1       5.164  -0.056  -0.472  0.00  0.00    +0.000 N 
ATOM      3  O   UNL     1       4.752  -0.156  -2.676  0.00  0.00    +0.000 OA
ATOM      4  H   UNL     1       4.884  -0.012   0.492  0.00  0.00    +0.000 HD
ATOM      5  H   UNL     1       6.152  -0.066  -0.686  0.00  0.00    +0.000 HD
ENDROOT
BRANCH   1   6
ATOM      6  O   UNL     1       2.983  -0.092  -1.267  0.00  0.00    +0.000 OA
BRANCH   6   8
ATOM      7  C   UNL     1       0.957  -0.033   0.042  0.00  0.00    +0.000 C 
ATOM      8  C   UNL     1       2.475  -0.031   0.076  0.00  0.00    +0.000 C 
ENDBRANCH   6   8
ENDBRANCH   1   6
TORSDOF 2
