REMARK  Name = Uridine triacetate
REMARK  11 active torsions:
REMARK  status: ('A' for Active; 'I' for Inactive)
REMARK    1  A    between atoms: C_1  and  C_2
REMARK    2  A    between atoms: C_2  and  O_4
REMARK    3  A    between atoms: O_4  and  C_5
REMARK    4  A    between atoms: C_5  and  C_6
REMARK    5  A    between atoms: C_8  and  N_19
REMARK    6  A    between atoms: C_9  and  O_10
REMARK    7  A    between atoms: O_10  and  C_11
REMARK    8  A    between atoms: C_11  and  C_12
REMARK    9  A    between atoms: C_14  and  O_15
REMARK   10  A    between atoms: O_15  and  C_16
REMARK   11  A    between atoms: C_16  and  C_17
REMARK                            x       y       z     vdW  Elec       q    Type
REMARK                         _______ _______ _______ _____ _____    ______ ____
ROOT
ATOM      1  C   UNL     1       5.183  -2.736   0.380  0.00  0.00    +0.000 C 
ATOM      2  O   UNL     1       4.419  -3.873   0.786  0.00  0.00    +0.000 OA
ATOM      3  C   UNL     1       4.825  -5.001  -0.033  0.00  0.00    +0.000 C 
ATOM      4  C   UNL     1       5.885  -4.487  -1.056  0.00  0.00    +0.000 C 
ATOM      5  C   UNL     1       5.576  -2.976  -1.078  0.00  0.00    +0.000 C 
ENDROOT
BRANCH   3   6
ATOM      6  N   UNL     1       3.602  -5.530  -0.673  0.00  0.00    +0.000 N 
ATOM      7  C   UNL     1       2.785  -4.704  -1.427  0.00  0.00    +0.000 A 
ATOM      8  C   UNL     1       1.594  -5.074  -1.882  0.00  0.00    +0.000 A 
ATOM      9  C   UNL     1       1.139  -6.445  -1.630  0.00  0.00    +0.000 A 
ATOM     10  O   UNL     1       0.021  -6.796  -1.938  0.00  0.00    +0.000 OA
ATOM     11  N   UNL     1       2.069  -7.260  -1.040  0.00  0.00    +0.000 N 
ATOM     12  C   UNL     1       3.221  -6.846  -0.415  0.00  0.00    +0.000 A 
ATOM     13  O   UNL     1       3.841  -7.621   0.311  0.00  0.00    +0.000 OA
ATOM     14  H   UNL     1       1.777  -8.209  -0.866  0.00  0.00    +0.000 HD
ENDBRANCH   3   6
BRANCH   1  15
ATOM     15  C   UNL     1       4.492  -1.391   0.632  0.00  0.00    +0.000 C 
BRANCH  15  16
ATOM     16  O   UNL     1       3.106  -1.338   0.241  0.00  0.00    +0.000 OA
BRANCH  16  18
ATOM     17  C   UNL     1       1.078  -0.098   0.090  0.00  0.00    +0.000 C 
ATOM     18  C   UNL     1       2.580  -0.074   0.138  0.00  0.00    +0.000 C 
ATOM     19  O   UNL     1       3.238   0.956   0.108  0.00  0.00    +0.000 OA
ENDBRANCH  16  18
ENDBRANCH  15  16
ENDBRANCH   1  15
BRANCH   4  20
ATOM     20  O   UNL     1       7.239  -4.737  -0.605  0.00  0.00    +0.000 OA
BRANCH  20  21
ATOM     21  C   UNL     1       8.326  -4.501  -1.393  0.00  0.00    +0.000 C 
ATOM     22  C   UNL     1       8.128  -3.992  -2.801  0.00  0.00    +0.000 C 
ATOM     23  O   UNL     1       9.458  -4.692  -0.955  0.00  0.00    +0.000 OA
ENDBRANCH  20  21
ENDBRANCH   4  20
BRANCH   5  24
ATOM     24  O   UNL     1       6.689  -2.147  -1.464  0.00  0.00    +0.000 OA
BRANCH  24  25
ATOM     25  C   UNL     1       6.657  -0.899  -1.990  0.00  0.00    +0.000 C 
ATOM     26  C   UNL     1       5.361  -0.149  -2.057  0.00  0.00    +0.000 C 
ATOM     27  O   UNL     1       7.705  -0.363  -2.336  0.00  0.00    +0.000 OA
ENDBRANCH  24  25
ENDBRANCH   5  24
TORSDOF 8
