REMARK  Name = Ursodeoxycholic acid
REMARK  10 active torsions:
REMARK  status: ('A' for Active; 'I' for Inactive)
REMARK    1  A    between atoms: C_2  and  C_27
REMARK    2  A    between atoms: C_9  and  O_10
REMARK    3  A    between atoms: C_15  and  O_16
REMARK    4  A    between atoms: C_19  and  C_20
REMARK    5  A    between atoms: C_25  and  C_26
REMARK    6  A    between atoms: C_27  and  C_28
REMARK    7  A    between atoms: C_27  and  C_29
REMARK    8  A    between atoms: C_29  and  C_30
REMARK    9  A    between atoms: C_30  and  C_31
REMARK   10  A    between atoms: C_31  and  O_32
REMARK                            x       y       z     vdW  Elec       q    Type
REMARK                         _______ _______ _______ _____ _____    ______ ____
ROOT
ATOM      1  C   UNL     1       2.105  -0.129  -0.060  0.00  0.00    +0.000 C 
ATOM      2  C   UNL     1       2.742  -1.501  -0.368  0.00  0.00    +0.000 C 
ATOM      3  C   UNL     1       3.956  -1.241  -1.250  0.00  0.00    +0.000 C 
ATOM      4  C   UNL     1       4.141   0.268  -1.204  0.00  0.00    +0.000 C 
ATOM      5  C   UNL     1       4.955   0.932  -2.316  0.00  0.00    +0.000 C 
ATOM      6  C   UNL     1       6.417   0.448  -2.357  0.00  0.00    +0.000 C 
ATOM      7  C   UNL     1       7.193   1.136  -3.481  0.00  0.00    +0.000 C 
ATOM      8  C   UNL     1       7.144   2.670  -3.409  0.00  0.00    +0.000 C 
ATOM      9  C   UNL     1       8.062   3.164  -2.274  0.00  0.00    +0.000 C 
ATOM     10  C   UNL     1       8.051   4.681  -2.137  0.00  0.00    +0.000 C 
ATOM     11  C   UNL     1       6.632   5.187  -1.912  0.00  0.00    +0.000 C 
ATOM     12  C   UNL     1       5.733   4.756  -3.066  0.00  0.00    +0.000 C 
ATOM     13  C   UNL     1       5.684   3.217  -3.286  0.00  0.00    +0.000 C 
ATOM     14  C   UNL     1       4.943   2.984  -4.629  0.00  0.00    +0.000 C 
ATOM     15  C   UNL     1       4.949   2.481  -2.110  0.00  0.00    +0.000 C 
ATOM     16  C   UNL     1       3.557   3.078  -1.790  0.00  0.00    +0.000 C 
ATOM     17  C   UNL     1       2.777   2.286  -0.741  0.00  0.00    +0.000 C 
ATOM     18  C   UNL     1       2.690   0.808  -1.141  0.00  0.00    +0.000 C 
ATOM     19  C   UNL     1       1.899   0.661  -2.462  0.00  0.00    +0.000 C 
ENDROOT
BRANCH   6  20
ATOM     20  O   UNL     1       6.513  -0.958  -2.546  0.00  0.00    +0.000 OA
ATOM     21  H   UNL     1       6.069  -1.188  -3.378  0.00  0.00    +0.000 HD
ENDBRANCH   6  20
BRANCH  10  22
ATOM     22  O   UNL     1       8.886   5.071  -1.054  0.00  0.00    +0.000 OA
ATOM     23  H   UNL     1       8.611   4.578  -0.262  0.00  0.00    +0.000 HD
ENDBRANCH  10  22
BRANCH   1  24
ATOM     24  C   UNL     1       0.556  -0.145   0.079  0.00  0.00    +0.000 C 
ATOM     25  C   UNL     1      -0.041  -1.546   0.244  0.00  0.00    +0.000 C 
BRANCH  24  26
ATOM     26  C   UNL     1       0.095   0.768   1.224  0.00  0.00    +0.000 C 
BRANCH  26  27
ATOM     27  C   UNL     1       0.577   0.277   2.586  0.00  0.00    +0.000 C 
BRANCH  27  28
ATOM     28  C   UNL     1       0.301   1.160   3.767  0.00  0.00    +0.000 C 
ATOM     29  O   UNL     1       0.703   0.861   4.890  0.00  0.00    +0.000 OA
BRANCH  28  30
ATOM     30  O   UNL     1      -0.395   2.286   3.546  0.00  0.00    +0.000 OA
ATOM     31  H   UNL     1      -0.679   2.453   2.630  0.00  0.00    +0.000 HD
ENDBRANCH  28  30
ENDBRANCH  27  28
ENDBRANCH  26  27
ENDBRANCH  24  26
ENDBRANCH   1  24
TORSDOF 7
