REMARK  Name = Valbenazine
REMARK  15 active torsions:
REMARK  status: ('A' for Active; 'I' for Inactive)
REMARK    1  A    between atoms: C_1  and  O_2
REMARK    2  A    between atoms: O_2  and  C_3
REMARK    3  A    between atoms: C_4  and  O_5
REMARK    4  A    between atoms: O_5  and  C_6
REMARK    5  A    between atoms: C_11  and  O_12
REMARK    6  A    between atoms: O_12  and  C_13
REMARK    7  A    between atoms: C_13  and  C_15
REMARK    8  A    between atoms: C_15  and  N_16
REMARK    9  A    between atoms: C_15  and  C_17
REMARK   10  A    between atoms: C_17  and  C_18
REMARK   11  A    between atoms: C_17  and  C_19
REMARK   12  A    between atoms: C_20  and  C_21
REMARK   13  A    between atoms: C_21  and  C_22
REMARK   14  A    between atoms: C_22  and  C_23
REMARK   15  A    between atoms: C_22  and  C_24
REMARK                            x       y       z     vdW  Elec       q    Type
REMARK                         _______ _______ _______ _____ _____    ______ ____
ROOT
ATOM      1  C   UNL     1       3.044  -0.340  -1.069  0.00  0.00    +0.000 A 
ATOM      2  C   UNL     1       4.172  -1.170  -1.027  0.00  0.00    +0.000 A 
ATOM      3  C   UNL     1       4.893  -1.399  -2.213  0.00  0.00    +0.000 A 
ATOM      4  C   UNL     1       4.488  -0.823  -3.438  0.00  0.00    +0.000 A 
ATOM      5  C   UNL     1       5.186  -1.112  -4.747  0.00  0.00    +0.000 C 
ATOM      6  C   UNL     1       5.244  -2.634  -4.939  0.00  0.00    +0.000 C 
ATOM      7  C   UNL     1       5.962  -2.909  -6.246  0.00  0.00    +0.000 C 
ATOM      8  C   UNL     1       5.292  -2.317  -7.483  0.00  0.00    +0.000 C 
ATOM      9  C   UNL     1       5.056  -0.837  -7.222  0.00  0.00    +0.000 C 
ATOM     10  N   UNL     1       4.433  -0.687  -5.933  0.00  0.00    +0.000 NA
ATOM     11  C   UNL     1       3.617   0.485  -5.933  0.00  0.00    +0.000 C 
ATOM     12  C   UNL     1       2.896   0.751  -4.645  0.00  0.00    +0.000 C 
ATOM     13  C   UNL     1       3.385   0.025  -3.437  0.00  0.00    +0.000 A 
ATOM     14  C   UNL     1       2.671   0.248  -2.267  0.00  0.00    +0.000 A 
ENDROOT
BRANCH   1  16
ATOM     15  C   UNL     1       0.968  -0.075  -0.000  0.00  0.00    +0.000 C 
ATOM     16  O   UNL     1       2.385   0.031   0.069  0.00  0.00    +0.000 OA
ENDBRANCH   1  16
BRANCH   2  17
ATOM     17  O   UNL     1       4.672  -1.822   0.075  0.00  0.00    +0.000 OA
ATOM     18  C   UNL     1       3.963  -1.628   1.294  0.00  0.00    +0.000 C 
ENDBRANCH   2  17
BRANCH   7  19
ATOM     19  O   UNL     1       6.266  -4.290  -6.355  0.00  0.00    +0.000 OA
BRANCH  19  20
ATOM     20  C   UNL     1       7.544  -4.698  -6.620  0.00  0.00    +0.000 C 
ATOM     21  O   UNL     1       7.809  -5.883  -6.582  0.00  0.00    +0.000 OA
BRANCH  20  22
ATOM     22  C   UNL     1       8.581  -3.605  -7.043  0.00  0.00    +0.000 C 
BRANCH  22  23
ATOM     23  N   UNL     1       9.073  -2.744  -5.942  0.00  0.00    +0.000 NA
ATOM     24  H   UNL     1       9.257  -3.284  -5.106  0.00  0.00    +0.000 HD
ATOM     25  H   UNL     1       8.462  -1.968  -5.703  0.00  0.00    +0.000 HD
ENDBRANCH  22  23
BRANCH  22  26
ATOM     26  C   UNL     1       9.777  -4.151  -7.830  0.00  0.00    +0.000 C 
ATOM     27  C   UNL     1       9.364  -5.026  -9.022  0.00  0.00    +0.000 C 
ATOM     28  C   UNL     1      10.646  -2.995  -8.364  0.00  0.00    +0.000 C 
ENDBRANCH  22  26
ENDBRANCH  20  22
ENDBRANCH  19  20
ENDBRANCH   7  19
BRANCH   8  29
ATOM     29  C   UNL     1       6.064  -2.562  -8.795  0.00  0.00    +0.000 C 
BRANCH  29  30
ATOM     30  C   UNL     1       6.895  -1.354  -9.332  0.00  0.00    +0.000 C 
ATOM     31  C   UNL     1       7.927  -0.637  -8.420  0.00  0.00    +0.000 C 
ATOM     32  C   UNL     1       7.628  -1.762 -10.604  0.00  0.00    +0.000 C 
ENDBRANCH  29  30
ENDBRANCH   8  29
TORSDOF 9
