REMARK  Name = Valdecoxib
REMARK  5 active torsions:
REMARK  status: ('A' for Active; 'I' for Inactive)
REMARK    1  A    between atoms: C_1  and  C_2
REMARK    2  A    between atoms: C_3  and  C_13
REMARK    3  A    between atoms: C_4  and  C_7
REMARK    4  A    between atoms: C_16  and  S_19
REMARK    5  A    between atoms: S_19  and  N_20
REMARK                            x       y       z     vdW  Elec       q    Type
REMARK                         _______ _______ _______ _____ _____    ______ ____
ROOT
ATOM      1  C   UNL     1       2.232   0.049  -0.005  0.00  0.00    +0.000 C 
ATOM      2  C   UNL     1       0.775  -0.172  -0.027  0.00  0.00    +0.000 A 
ATOM      3  C   UNL     1      -0.040  -1.279  -0.061  0.00  0.00    +0.000 A 
ATOM      4  C   UNL     1      -1.359  -0.747  -0.053  0.00  0.00    +0.000 A 
ATOM      5  N   UNL     1      -1.334   0.594  -0.051  0.00  0.00    +0.000 NA
ATOM      6  O   UNL     1       0.002   0.949  -0.020  0.00  0.00    +0.000 OA
ENDROOT
BRANCH   4   7
ATOM      7  C   UNL     1      -2.604  -1.493   0.017  0.00  0.00    +0.000 A 
ATOM      8  C   UNL     1      -3.579  -1.349  -0.974  0.00  0.00    +0.000 A 
ATOM      9  C   UNL     1      -4.796  -2.021  -0.851  0.00  0.00    +0.000 A 
ATOM     10  C   UNL     1      -5.009  -2.897   0.214  0.00  0.00    +0.000 A 
ATOM     11  C   UNL     1      -4.024  -3.075   1.183  0.00  0.00    +0.000 A 
ATOM     12  C   UNL     1      -2.828  -2.368   1.090  0.00  0.00    +0.000 A 
ENDBRANCH   4   7
BRANCH   3  13
ATOM     13  C   UNL     1       0.382  -2.663  -0.032  0.00  0.00    +0.000 A 
ATOM     14  C   UNL     1      -0.070  -3.551  -1.018  0.00  0.00    +0.000 A 
ATOM     15  C   UNL     1       0.184  -4.920  -0.903  0.00  0.00    +0.000 A 
ATOM     16  C   UNL     1       0.962  -5.386   0.160  0.00  0.00    +0.000 A 
ATOM     17  C   UNL     1       1.417  -4.509   1.149  0.00  0.00    +0.000 A 
ATOM     18  C   UNL     1       1.120  -3.149   1.053  0.00  0.00    +0.000 A 
BRANCH  16  19
ATOM     19  S   UNL     1       1.498  -7.079   0.172  0.00  0.00    +0.000 S 
ATOM     20  O   UNL     1       2.062  -7.358  -1.131  0.00  0.00    +0.000 OA
ATOM     21  O   UNL     1       2.207  -7.325   1.401  0.00  0.00    +0.000 OA
BRANCH  19  22
ATOM     22  N   UNL     1       0.056  -7.901   0.274  0.00  0.00    +0.000 NA
ATOM     23  H   UNL     1      -0.479  -7.997  -0.582  0.00  0.00    +0.000 HD
ATOM     24  H   UNL     1      -0.392  -7.923   1.184  0.00  0.00    +0.000 HD
ENDBRANCH  19  22
ENDBRANCH  16  19
ENDBRANCH   3  13
TORSDOF 4
