REMARK  Name = Valganciclovir
REMARK  13 active torsions:
REMARK  status: ('A' for Active; 'I' for Inactive)
REMARK    1  A    between atoms: C_1  and  C_2
REMARK    2  A    between atoms: C_2  and  C_3
REMARK    3  A    between atoms: C_2  and  C_4
REMARK    4  A    between atoms: C_4  and  N_5
REMARK    5  A    between atoms: C_4  and  C_6
REMARK    6  A    between atoms: C_6  and  O_8
REMARK    7  A    between atoms: O_8  and  C_9
REMARK    8  A    between atoms: C_9  and  C_10
REMARK    9  A    between atoms: C_10  and  C_11
REMARK   10  A    between atoms: C_10  and  O_13
REMARK   11  A    between atoms: C_11  and  O_12
REMARK   12  A    between atoms: O_13  and  C_14
REMARK   13  A    between atoms: C_14  and  N_15
REMARK                            x       y       z     vdW  Elec       q    Type
REMARK                         _______ _______ _______ _____ _____    ______ ____
ROOT
ATOM      1  O   UNL     1       8.542  -3.701   1.975  0.00  0.00    +0.000 OA
ENDROOT
BRANCH   1   2
ATOM      2  C   UNL     1       7.103  -3.692   1.962  0.00  0.00    +0.000 C 
BRANCH   2   3
ATOM      3  C   UNL     1       6.596  -2.374   1.324  0.00  0.00    +0.000 C 
BRANCH   3   4
ATOM      4  O   UNL     1       5.157  -2.294   1.399  0.00  0.00    +0.000 OA
BRANCH   4   5
ATOM      5  C   UNL     1       4.587  -1.257   0.716  0.00  0.00    +0.000 C 
ATOM      6  O   UNL     1       5.224  -0.349   0.191  0.00  0.00    +0.000 OA
BRANCH   5   7
ATOM      7  C   UNL     1       3.031  -1.326   0.732  0.00  0.00    +0.000 C 
BRANCH   7   9
ATOM      8  C   UNL     1       2.945  -3.860   0.327  0.00  0.00    +0.000 C 
ATOM      9  C   UNL     1       2.394  -2.500  -0.058  0.00  0.00    +0.000 C 
ATOM     10  C   UNL     1       2.546  -2.363  -1.576  0.00  0.00    +0.000 C 
ENDBRANCH   7   9
BRANCH   7  11
ATOM     11  N   UNL     1       2.474  -0.055   0.188  0.00  0.00    +0.000 NA
ATOM     12  H   UNL     1       2.841   0.058  -0.762  0.00  0.00    +0.000 HD
ATOM     13  H   UNL     1       2.892   0.732   0.687  0.00  0.00    +0.000 HD
ENDBRANCH   7  11
ENDBRANCH   5   7
ENDBRANCH   4   5
ENDBRANCH   3   4
ENDBRANCH   2   3
BRANCH   2  14
ATOM     14  C   UNL     1       6.589  -4.935   1.209  0.00  0.00    +0.000 C 
BRANCH  14  15
ATOM     15  O   UNL     1       5.205  -5.154   1.295  0.00  0.00    +0.000 OA
ATOM     16  H   UNL     1       4.897  -4.919   2.186  0.00  0.00    +0.000 HD
ENDBRANCH  14  15
ENDBRANCH   2  14
ENDBRANCH   1   2
BRANCH   1  17
ATOM     17  C   UNL     1       9.070  -4.858   2.625  0.00  0.00    +0.000 C 
BRANCH  17  18
ATOM     18  N   UNL     1      10.507  -4.824   2.556  0.00  0.00    +0.000 N 
ATOM     19  C   UNL     1      11.326  -4.298   3.519  0.00  0.00    +0.000 A 
ATOM     20  N   UNL     1      12.599  -4.500   3.241  0.00  0.00    +0.000 NA
ATOM     21  C   UNL     1      12.597  -5.187   2.042  0.00  0.00    +0.000 A 
ATOM     22  C   UNL     1      11.310  -5.408   1.628  0.00  0.00    +0.000 A 
ATOM     23  N   UNL     1      11.019  -6.085   0.504  0.00  0.00    +0.000 N 
ATOM     24  C   UNL     1      12.087  -6.529  -0.239  0.00  0.00    +0.000 A 
ATOM     25  N   UNL     1      11.744  -7.196  -1.362  0.00  0.00    +0.000 N 
ATOM     26  N   UNL     1      13.344  -6.365   0.060  0.00  0.00    +0.000 NA
ATOM     27  C   UNL     1      13.708  -5.683   1.226  0.00  0.00    +0.000 A 
ATOM     28  O   UNL     1      14.883  -5.511   1.549  0.00  0.00    +0.000 OA
ATOM     29  H   UNL     1      10.086  -6.240   0.149  0.00  0.00    +0.000 HD
ATOM     30  H   UNL     1      10.801  -7.344  -1.684  0.00  0.00    +0.000 HD
ATOM     31  H   UNL     1      12.498  -7.527  -1.954  0.00  0.00    +0.000 HD
ENDBRANCH  17  18
ENDBRANCH   1  17
TORSDOF 11
