REMARK  Name = Valine
REMARK  6 active torsions:
REMARK  status: ('A' for Active; 'I' for Inactive)
REMARK    1  A    between atoms: CG1_1  and  CB_2
REMARK    2  A    between atoms: CB_2  and  CG2_3
REMARK    3  A    between atoms: CB_2  and  CA_4
REMARK    4  A    between atoms: CA_4  and  N_5
REMARK    5  A    between atoms: CA_4  and  C_6
REMARK    6  A    between atoms: C_6  and  O_7
REMARK                            x       y       z     vdW  Elec       q    Type
REMARK                         _______ _______ _______ _____ _____    ______ ____
ROOT
ATOM      1  CA  VAL A   1       3.016  -0.958   1.109  0.00  0.00    +0.000 C 
ENDROOT
BRANCH   1   3
ATOM      2  CG1 VAL A   1       2.297  -3.186   2.196  0.00  0.00    +0.000 C 
ATOM      3  CB  VAL A   1       2.275  -2.309   0.940  0.00  0.00    +0.000 C 
ATOM      4  CG2 VAL A   1       2.612  -3.163  -0.287  0.00  0.00    +0.000 C 
ENDBRANCH   1   3
BRANCH   1   5
ATOM      5  N   VAL A   1       2.562  -0.032   0.046  0.00  0.00    +0.000 NA
ATOM      6  H1  VAL A   1       2.775  -0.363  -0.889  0.00  0.00    +0.000 HD
ATOM      7  H2  VAL A   1       2.822   0.934   0.219  0.00  0.00    +0.000 HD
ENDBRANCH   1   5
BRANCH   1   8
ATOM      8  C   VAL A   1       4.557  -1.021   1.183  0.00  0.00    +0.000 C 
ATOM      9  OXT VAL A   1       5.183  -1.660   2.021  0.00  0.00    +0.000 OA
BRANCH   8  10
ATOM     10  O   VAL A   1       5.199  -0.250   0.269  0.00  0.00    +0.000 OA
ATOM     11  H   VAL A   1       4.578   0.226  -0.312  0.00  0.00    +0.000 HD
ENDBRANCH   8  10
ENDBRANCH   1   8
TORSDOF 4
