REMARK  Name = Valproic acid
REMARK  8 active torsions:
REMARK  status: ('A' for Active; 'I' for Inactive)
REMARK    1  A    between atoms: C_1  and  C_2
REMARK    2  A    between atoms: C_2  and  C_3
REMARK    3  A    between atoms: C_3  and  C_4
REMARK    4  A    between atoms: C_4  and  C_5
REMARK    5  A    between atoms: C_4  and  C_8
REMARK    6  A    between atoms: C_5  and  C_6
REMARK    7  A    between atoms: C_6  and  C_7
REMARK    8  A    between atoms: C_8  and  O_9
REMARK                            x       y       z     vdW  Elec       q    Type
REMARK                         _______ _______ _______ _____ _____    ______ ____
ROOT
ATOM      1  C   UNL     1       4.576  -1.434   0.068  0.00  0.00    +0.000 C 
ENDROOT
BRANCH   1   2
ATOM      2  C   UNL     1       5.171  -2.855   0.145  0.00  0.00    +0.000 C 
ATOM      3  O   UNL     1       6.371  -3.065   0.146  0.00  0.00    +0.000 OA
BRANCH   2   4
ATOM      4  O   UNL     1       4.303  -3.888   0.219  0.00  0.00    +0.000 OA
ATOM      5  H   UNL     1       3.351  -3.695   0.221  0.00  0.00    +0.000 HD
ENDBRANCH   2   4
ENDBRANCH   1   2
BRANCH   1   6
ATOM      6  C   UNL     1       3.031  -1.425   0.003  0.00  0.00    +0.000 C 
BRANCH   6   8
ATOM      7  C   UNL     1       0.878  -0.077  -0.220  0.00  0.00    +0.000 C 
ATOM      8  C   UNL     1       2.381  -0.067  -0.222  0.00  0.00    +0.000 C 
ENDBRANCH   6   8
ENDBRANCH   1   6
BRANCH   1   9
ATOM      9  C   UNL     1       5.169  -0.609   1.245  0.00  0.00    +0.000 C 
BRANCH   9  10
ATOM     10  C   UNL     1       4.856   0.886   1.222  0.00  0.00    +0.000 C 
ATOM     11  C   UNL     1       5.359   1.685   2.394  0.00  0.00    +0.000 C 
ENDBRANCH   9  10
ENDBRANCH   1   9
TORSDOF 6
