REMARK  Name = Valsartan
REMARK  14 active torsions:
REMARK  status: ('A' for Active; 'I' for Inactive)
REMARK    1  A    between atoms: C_1  and  C_2
REMARK    2  A    between atoms: C_2  and  C_3
REMARK    3  A    between atoms: C_3  and  C_4
REMARK    4  A    between atoms: C_4  and  C_5
REMARK    5  A    between atoms: N_7  and  C_8
REMARK    6  A    between atoms: N_7  and  C_26
REMARK    7  A    between atoms: C_8  and  C_9
REMARK    8  A    between atoms: C_12  and  C_15
REMARK    9  A    between atoms: C_20  and  C_21
REMARK   10  A    between atoms: C_26  and  C_27
REMARK   11  A    between atoms: C_26  and  C_30
REMARK   12  A    between atoms: C_27  and  C_28
REMARK   13  A    between atoms: C_27  and  C_29
REMARK   14  A    between atoms: C_30  and  O_31
REMARK                            x       y       z     vdW  Elec       q    Type
REMARK                         _______ _______ _______ _____ _____    ______ ____
ROOT
ATOM      1  C   UNL     1       7.021  -0.537   0.008  0.00  0.00    +0.000 A 
ATOM      2  C   UNL     1       7.549   0.690   0.399  0.00  0.00    +0.000 A 
ATOM      3  C   UNL     1       6.820   1.849   0.129  0.00  0.00    +0.000 A 
ATOM      4  C   UNL     1       5.598   1.770  -0.551  0.00  0.00    +0.000 A 
ATOM      5  C   UNL     1       5.307   0.568  -1.185  0.00  0.00    +0.000 A 
ATOM      6  C   UNL     1       6.123  -0.541  -1.031  0.00  0.00    +0.000 A 
ENDROOT
BRANCH   4   7
ATOM      7  C   UNL     1       4.817   2.958  -0.892  0.00  0.00    +0.000 A 
ATOM      8  C   UNL     1       5.386   3.715  -1.935  0.00  0.00    +0.000 A 
ATOM      9  C   UNL     1       4.826   4.910  -2.355  0.00  0.00    +0.000 A 
ATOM     10  C   UNL     1       3.605   5.311  -1.839  0.00  0.00    +0.000 A 
ATOM     11  C   UNL     1       2.972   4.536  -0.872  0.00  0.00    +0.000 A 
ATOM     12  C   UNL     1       3.576   3.375  -0.353  0.00  0.00    +0.000 A 
BRANCH  12  13
ATOM     13  C   UNL     1       2.821   2.694   0.691  0.00  0.00    +0.000 A 
ATOM     14  N   UNL     1       1.481   2.532   0.635  0.00  0.00    +0.000 NA
ATOM     15  N   UNL     1       1.290   1.742   1.705  0.00  0.00    +0.000 N 
ATOM     16  N   UNL     1       2.367   1.533   2.471  0.00  0.00    +0.000 NA
ATOM     17  N   UNL     1       3.362   2.133   1.824  0.00  0.00    +0.000 NA
ATOM     18  H   UNL     1       0.438   1.195   1.819  0.00  0.00    +0.000 HD
ENDBRANCH  12  13
ENDBRANCH   4   7
BRANCH   1  19
ATOM     19  C   UNL     1       7.388  -1.834   0.637  0.00  0.00    +0.000 C 
BRANCH  19  22
ATOM     20  C   UNL     1       5.058  -2.712   1.386  0.00  0.00    +0.000 C 
ATOM     21  O   UNL     1       4.445  -3.467   2.109  0.00  0.00    +0.000 OA
ATOM     22  N   UNL     1       6.438  -2.880   1.046  0.00  0.00    +0.000 N 
BRANCH  20  23
ATOM     23  C   UNL     1       4.284  -1.596   0.729  0.00  0.00    +0.000 C 
BRANCH  23  24
ATOM     24  C   UNL     1       2.779  -1.667   0.617  0.00  0.00    +0.000 C 
BRANCH  24  26
ATOM     25  C   UNL     1       0.799  -0.434  -0.269  0.00  0.00    +0.000 C 
ATOM     26  C   UNL     1       2.302  -0.474  -0.208  0.00  0.00    +0.000 C 
ENDBRANCH  24  26
ENDBRANCH  23  24
ENDBRANCH  20  23
BRANCH  22  27
ATOM     27  C   UNL     1       7.089  -4.180   1.500  0.00  0.00    +0.000 C 
BRANCH  27  28
ATOM     28  C   UNL     1       6.584  -5.399   0.609  0.00  0.00    +0.000 C 
ATOM     29  C   UNL     1       7.056  -6.771   1.118  0.00  0.00    +0.000 C 
ATOM     30  C   UNL     1       5.058  -5.542   0.496  0.00  0.00    +0.000 C 
ENDBRANCH  27  28
BRANCH  27  31
ATOM     31  C   UNL     1       8.676  -4.333   1.684  0.00  0.00    +0.000 C 
ATOM     32  O   UNL     1       9.167  -5.332   2.223  0.00  0.00    +0.000 OA
BRANCH  31  33
ATOM     33  O   UNL     1       9.572  -3.433   1.258  0.00  0.00    +0.000 OA
ATOM     34  H   UNL     1       9.434  -2.563   0.863  0.00  0.00    +0.000 HD
ENDBRANCH  31  33
ENDBRANCH  27  31
ENDBRANCH  22  27
ENDBRANCH  19  22
ENDBRANCH   1  19
TORSDOF 11
