REMARK  Name = Vandetanib
REMARK  7 active torsions:
REMARK  status: ('A' for Active; 'I' for Inactive)
REMARK    1  A    between atoms: C_1  and  O_2
REMARK    2  A    between atoms: O_2  and  C_3
REMARK    3  A    between atoms: C_4  and  O_5
REMARK    4  A    between atoms: O_5  and  C_6
REMARK    5  A    between atoms: C_6  and  C_7
REMARK    6  A    between atoms: N_10  and  C_11
REMARK    7  A    between atoms: N_20  and  C_21
REMARK                            x       y       z     vdW  Elec       q    Type
REMARK                         _______ _______ _______ _____ _____    ______ ____
ROOT
ATOM      1  C   UNL     1       3.100   0.836   0.856  0.00  0.00    +0.000 A 
ATOM      2  C   UNL     1       2.673   1.087   2.148  0.00  0.00    +0.000 A 
ATOM      3  C   UNL     1       3.437   1.900   3.030  0.00  0.00    +0.000 A 
ATOM      4  C   UNL     1       4.626   2.515   2.646  0.00  0.00    +0.000 A 
ATOM      5  N   UNL     1       5.314   3.257   3.533  0.00  0.00    +0.000 NA
ATOM      6  C   UNL     1       6.447   3.812   3.082  0.00  0.00    +0.000 A 
ATOM      7  N   UNL     1       6.931   3.734   1.836  0.00  0.00    +0.000 NA
ATOM      8  C   UNL     1       6.221   2.995   0.953  0.00  0.00    +0.000 A 
ATOM      9  N   UNL     1       6.714   2.981  -0.367  0.00  0.00    +0.000 N 
ATOM     10  C   UNL     1       5.060   2.295   1.356  0.00  0.00    +0.000 A 
ATOM     11  C   UNL     1       4.341   1.363   0.550  0.00  0.00    +0.000 A 
ATOM     12  H   UNL     1       7.627   3.412  -0.433  0.00  0.00    +0.000 HD
ENDROOT
BRANCH   9  13
ATOM     13  C   UNL     1       6.174   2.432  -1.550  0.00  0.00    +0.000 A 
ATOM     14  C   UNL     1       4.858   2.710  -1.986  0.00  0.00    +0.000 A 
ATOM     15  F   UNL     1       4.115   3.620  -1.334  0.00  0.00    +0.000 F 
ATOM     16  C   UNL     1       4.227   1.938  -2.962  0.00  0.00    +0.000 A 
ATOM     17  C   UNL     1       4.934   0.913  -3.577  0.00  0.00    +0.000 A 
ATOM     18 BR   UNL     1       4.095  -0.128  -4.914  0.00  0.00    +0.000 Br
ATOM     19  C   UNL     1       6.251   0.641  -3.204  0.00  0.00    +0.000 A 
ATOM     20  C   UNL     1       6.868   1.396  -2.194  0.00  0.00    +0.000 A 
ENDBRANCH   9  13
BRANCH   1  22
ATOM     21  C   UNL     1       1.327   0.047  -0.673  0.00  0.00    +0.000 C 
ATOM     22  O   UNL     1       2.646  -0.030  -0.113  0.00  0.00    +0.000 OA
ENDBRANCH   1  22
BRANCH   2  23
ATOM     23  O   UNL     1       1.603   0.539   2.787  0.00  0.00    +0.000 OA
BRANCH  23  24
ATOM     24  C   UNL     1       0.788  -0.249   1.963  0.00  0.00    +0.000 C 
BRANCH  24  25
ATOM     25  C   UNL     1      -0.470  -0.901   2.501  0.00  0.00    +0.000 C 
ATOM     26  C   UNL     1      -0.908  -0.104   3.704  0.00  0.00    +0.000 C 
ATOM     27  C   UNL     1       0.086  -0.306   4.851  0.00  0.00    +0.000 C 
ATOM     28  N   UNL     1       0.333  -1.728   5.141  0.00  0.00    +0.000 NA
ATOM     29  C   UNL     1       1.399  -1.801   6.139  0.00  0.00    +0.000 C 
ATOM     30  C   UNL     1       0.752  -2.508   3.960  0.00  0.00    +0.000 C 
ATOM     31  C   UNL     1      -0.260  -2.376   2.835  0.00  0.00    +0.000 C 
ENDBRANCH  24  25
ENDBRANCH  23  24
ENDBRANCH   2  23
TORSDOF 5
