REMARK  Name = Vanillyl butyl ether
REMARK  9 active torsions:
REMARK  status: ('A' for Active; 'I' for Inactive)
REMARK    1  A    between atoms: C_1  and  C_2
REMARK    2  A    between atoms: C_2  and  C_3
REMARK    3  A    between atoms: C_3  and  C_4
REMARK    4  A    between atoms: C_4  and  O_5
REMARK    5  A    between atoms: O_5  and  C_6
REMARK    6  A    between atoms: C_6  and  C_7
REMARK    7  A    between atoms: C_9  and  O_10
REMARK    8  A    between atoms: O_10  and  C_11
REMARK    9  A    between atoms: C_12  and  O_13
REMARK                            x       y       z     vdW  Elec       q    Type
REMARK                         _______ _______ _______ _____ _____    ______ ____
ROOT
ATOM      1  C   UNL     1       6.952  -4.126   0.355  0.00  0.00    +0.000 A 
ATOM      2  C   UNL     1       6.098  -5.218   0.118  0.00  0.00    +0.000 A 
ATOM      3  C   UNL     1       6.558  -6.529   0.251  0.00  0.00    +0.000 A 
ATOM      4  C   UNL     1       7.889  -6.737   0.621  0.00  0.00    +0.000 A 
ATOM      5  C   UNL     1       8.756  -5.673   0.842  0.00  0.00    +0.000 A 
ATOM      6  C   UNL     1       8.288  -4.367   0.702  0.00  0.00    +0.000 A 
ENDROOT
BRANCH   3   7
ATOM      7  O   UNL     1       5.803  -7.658   0.045  0.00  0.00    +0.000 OA
ATOM      8  C   UNL     1       4.452  -7.435  -0.356  0.00  0.00    +0.000 C 
ENDBRANCH   3   7
BRANCH   4   9
ATOM      9  O   UNL     1       8.382  -8.004   0.778  0.00  0.00    +0.000 OA
ATOM     10  H   UNL     1       7.626  -8.595   0.596  0.00  0.00    +0.000 HD
ENDBRANCH   4   9
BRANCH   1  11
ATOM     11  C   UNL     1       6.468  -2.706   0.204  0.00  0.00    +0.000 C 
BRANCH  11  12
ATOM     12  O   UNL     1       5.041  -2.657   0.207  0.00  0.00    +0.000 OA
BRANCH  12  13
ATOM     13  C   UNL     1       4.574  -1.323   0.067  0.00  0.00    +0.000 C 
BRANCH  13  14
ATOM     14  C   UNL     1       3.053  -1.342   0.067  0.00  0.00    +0.000 C 
BRANCH  14  16
ATOM     15  C   UNL     1       0.988   0.077  -0.076  0.00  0.00    +0.000 C 
ATOM     16  C   UNL     1       2.505   0.072  -0.075  0.00  0.00    +0.000 C 
ENDBRANCH  14  16
ENDBRANCH  13  14
ENDBRANCH  12  13
ENDBRANCH  11  12
ENDBRANCH   1  11
TORSDOF 7
