REMARK  Name = Vardenafil
REMARK  12 active torsions:
REMARK  status: ('A' for Active; 'I' for Inactive)
REMARK    1  A    between atoms: C_1  and  C_2
REMARK    2  A    between atoms: C_2  and  C_3
REMARK    3  A    between atoms: C_3  and  C_4
REMARK    4  A    between atoms: C_6  and  C_7
REMARK    5  A    between atoms: C_11  and  C_15
REMARK    6  A    between atoms: C_16  and  O_17
REMARK    7  A    between atoms: O_17  and  C_18
REMARK    8  A    between atoms: C_18  and  C_19
REMARK    9  A    between atoms: C_22  and  S_24
REMARK   10  A    between atoms: S_24  and  N_27
REMARK   11  A    between atoms: N_30  and  C_31
REMARK   12  A    between atoms: C_31  and  C_32
REMARK                            x       y       z     vdW  Elec       q    Type
REMARK                         _______ _______ _______ _____ _____    ______ ____
ROOT
ATOM      1  C   UNL     1       5.814  -1.088  -3.762  0.00  0.00    +0.000 A 
ATOM      2  C   UNL     1       6.248  -2.085  -4.582  0.00  0.00    +0.000 A 
ATOM      3  C   UNL     1       5.796  -2.056  -5.951  0.00  0.00    +0.000 A 
ATOM      4  C   UNL     1       4.820  -1.133  -6.477  0.00  0.00    +0.000 A 
ATOM      5  C   UNL     1       4.442  -0.096  -5.681  0.00  0.00    +0.000 A 
ATOM      6  C   UNL     1       4.966  -0.224  -4.416  0.00  0.00    +0.000 A 
ENDROOT
BRANCH   1  14
ATOM      7  C   UNL     1       4.490  -0.969   1.071  0.00  0.00    +0.000 A 
ATOM      8  N   UNL     1       5.224  -1.024   2.173  0.00  0.00    +0.000 NA
ATOM      9  C   UNL     1       6.538  -0.974   1.762  0.00  0.00    +0.000 A 
ATOM     10  C   UNL     1       7.663  -1.031   2.729  0.00  0.00    +0.000 C 
ATOM     11  C   UNL     1       6.585  -0.843   0.391  0.00  0.00    +0.000 A 
ATOM     12  N   UNL     1       5.308  -0.921  -0.048  0.00  0.00    +0.000 N 
ATOM     13  N   UNL     1       5.038  -1.032  -1.384  0.00  0.00    +0.000 N 
ATOM     14  C   UNL     1       6.088  -0.813  -2.249  0.00  0.00    +0.000 A 
ATOM     15  N   UNL     1       7.295  -0.524  -1.859  0.00  0.00    +0.000 NA
ATOM     16  C   UNL     1       7.679  -0.716  -0.527  0.00  0.00    +0.000 A 
ATOM     17  O   UNL     1       8.829  -0.866  -0.193  0.00  0.00    +0.000 OA
ATOM     18  H   UNL     1       4.095  -1.055  -1.719  0.00  0.00    +0.000 HD
BRANCH   7  19
ATOM     19  C   UNL     1       2.992  -0.989   1.068  0.00  0.00    +0.000 C 
BRANCH  19  21
ATOM     20  C   UNL     1       0.874  -0.053   0.012  0.00  0.00    +0.000 C 
ATOM     21  C   UNL     1       2.383  -0.068   0.027  0.00  0.00    +0.000 C 
ENDBRANCH  19  21
ENDBRANCH   7  19
ENDBRANCH   1  14
BRANCH   5  22
ATOM     22  S   UNL     1       3.529   1.408  -6.211  0.00  0.00    +0.000 S 
ATOM     23  O   UNL     1       4.283   1.948  -7.324  0.00  0.00    +0.000 OA
ATOM     24  O   UNL     1       2.150   0.991  -6.369  0.00  0.00    +0.000 OA
BRANCH  22  25
ATOM     25  N   UNL     1       3.498   2.688  -5.024  0.00  0.00    +0.000 NA
ATOM     26  C   UNL     1       2.673   2.519  -3.792  0.00  0.00    +0.000 C 
ATOM     27  C   UNL     1       3.401   1.607  -2.844  0.00  0.00    +0.000 C 
ATOM     28  N   UNL     1       4.869   2.006  -2.635  0.00  0.00    +0.000 NA
ATOM     29  C   UNL     1       5.633   2.506  -3.879  0.00  0.00    +0.000 C 
ATOM     30  C   UNL     1       4.774   3.415  -4.719  0.00  0.00    +0.000 C 
BRANCH  28  31
ATOM     31  C   UNL     1       4.926   2.987  -1.574  0.00  0.00    +0.000 C 
ATOM     32  C   UNL     1       6.362   3.332  -1.248  0.00  0.00    +0.000 C 
ENDBRANCH  28  31
ENDBRANCH  22  25
ENDBRANCH   5  22
BRANCH   2  33
ATOM     33  O   UNL     1       7.007  -3.156  -4.186  0.00  0.00    +0.000 OA
BRANCH  33  34
ATOM     34  C   UNL     1       7.289  -3.189  -2.784  0.00  0.00    +0.000 C 
ATOM     35  C   UNL     1       8.040  -4.405  -2.359  0.00  0.00    +0.000 C 
ENDBRANCH  33  34
ENDBRANCH   2  33
TORSDOF 8
