REMARK  Name = Varenicline
REMARK  0 active torsions:
REMARK  status: ('A' for Active; 'I' for Inactive)
REMARK                            x       y       z     vdW  Elec       q    Type
REMARK                         _______ _______ _______ _____ _____    ______ ____
ROOT
ATOM      1  C   UNL     1       1.087   0.495   0.375  0.00  0.00    +0.000 C 
ATOM      2  C   UNL     1       2.509  -0.035   0.110  0.00  0.00    +0.000 C 
ATOM      3  C   UNL     1       3.086  -0.525   1.470  0.00  0.00    +0.000 C 
ATOM      4  N   UNL     1       2.270  -0.079   2.619  0.00  0.00    +0.000 NA
ATOM      5  C   UNL     1       2.068   1.375   2.567  0.00  0.00    +0.000 C 
ATOM      6  C   UNL     1       1.429   1.782   1.211  0.00  0.00    +0.000 C 
ATOM      7  C   UNL     1       2.505   2.341   0.306  0.00  0.00    +0.000 A 
ATOM      8  C   UNL     1       3.107   1.270  -0.357  0.00  0.00    +0.000 A 
ATOM      9  C   UNL     1       4.023   1.486  -1.360  0.00  0.00    +0.000 A 
ATOM     10  C   UNL     1       4.390   2.779  -1.681  0.00  0.00    +0.000 A 
ATOM     11  N   UNL     1       5.258   2.952  -2.690  0.00  0.00    +0.000 NA
ATOM     12  C   UNL     1       5.600   4.221  -2.975  0.00  0.00    +0.000 A 
ATOM     13  C   UNL     1       5.097   5.295  -2.267  0.00  0.00    +0.000 A 
ATOM     14  N   UNL     1       4.218   5.148  -1.248  0.00  0.00    +0.000 NA
ATOM     15  C   UNL     1       3.845   3.887  -0.950  0.00  0.00    +0.000 A 
ATOM     16  C   UNL     1       2.903   3.644   0.052  0.00  0.00    +0.000 A 
ATOM     17  H   UNL     1       2.648  -0.388   3.509  0.00  0.00    +0.000 HD
ENDROOT
TORSDOF 0
