REMARK  Name = Vecuronium
REMARK  11 active torsions:
REMARK  status: ('A' for Active; 'I' for Inactive)
REMARK    1  A    between atoms: C_4  and  N_38
REMARK    2  A    between atoms: C_5  and  O_6
REMARK    3  A    between atoms: O_6  and  C_7
REMARK    4  A    between atoms: C_7  and  C_8
REMARK    5  A    between atoms: C_10  and  C_11
REMARK    6  A    between atoms: C_23  and  O_24
REMARK    7  A    between atoms: O_24  and  C_25
REMARK    8  A    between atoms: C_25  and  C_26
REMARK    9  A    between atoms: C_28  and  N_32
REMARK   10  A    between atoms: C_30  and  C_31
REMARK   11  A    between atoms: N_38  and  C_39
REMARK                            x       y       z     vdW  Elec       q    Type
REMARK                         _______ _______ _______ _____ _____    ______ ____
ROOT
ATOM      1  C   UNL     1       2.063   0.014  -0.015  0.00  0.00    +0.000 C 
ATOM      2  C   UNL     1       2.599  -1.235  -0.680  0.00  0.00    +0.000 C 
ATOM      3  C   UNL     1       2.680  -0.839  -2.173  0.00  0.00    +0.000 C 
ATOM      4  C   UNL     1       2.457   0.745  -2.203  0.00  0.00    +0.000 C 
ATOM      5  C   UNL     1       2.719   1.194  -0.749  0.00  0.00    +0.000 C 
ATOM      6  C   UNL     1       4.216   1.459  -0.437  0.00  0.00    +0.000 C 
ATOM      7  C   UNL     1       1.993   2.463  -0.316  0.00  0.00    +0.000 C 
ATOM      8  C   UNL     1       2.090   2.698   1.160  0.00  0.00    +0.000 C 
ATOM      9  C   UNL     1       1.633   1.461   1.939  0.00  0.00    +0.000 C 
ATOM     10  C   UNL     1       2.288   0.126   1.464  0.00  0.00    +0.000 C 
ATOM     11  C   UNL     1       1.782  -1.093   2.241  0.00  0.00    +0.000 C 
ATOM     12  C   UNL     1       1.809  -0.899   3.749  0.00  0.00    +0.000 C 
ATOM     13  C   UNL     1       1.042   0.376   4.056  0.00  0.00    +0.000 C 
ATOM     14  C   UNL     1       0.501   0.387   5.497  0.00  0.00    +0.000 C 
ATOM     15  C   UNL     1       0.031   1.816   5.915  0.00  0.00    +0.000 C 
ATOM     16  C   UNL     1       0.908   3.077   5.453  0.00  0.00    +0.000 C 
ATOM     17  C   UNL     1       1.130   2.919   3.922  0.00  0.00    +0.000 C 
ATOM     18  C   UNL     1       1.856   1.618   3.460  0.00  0.00    +0.000 C 
ATOM     19  C   UNL     1       3.469   1.663   3.515  0.00  0.00    +0.000 C 
ENDROOT
BRANCH   3  20
ATOM     20  N   UNL     1       3.994  -1.383  -2.838  0.00  0.00    +0.000 N 
ATOM     21  C   UNL     1       4.066  -2.901  -2.625  0.00  0.00    +0.000 C 
ATOM     22  C   UNL     1       3.977  -1.090  -4.349  0.00  0.00    +0.000 C 
ATOM     23  C   UNL     1       5.301  -1.475  -4.988  0.00  0.00    +0.000 C 
ATOM     24  C   UNL     1       6.504  -0.830  -4.299  0.00  0.00    +0.000 C 
ATOM     25  C   UNL     1       6.526  -1.106  -2.814  0.00  0.00    +0.000 C 
ATOM     26  C   UNL     1       5.206  -0.735  -2.220  0.00  0.00    +0.000 C 
ENDBRANCH   3  20
BRANCH  16  27
ATOM     27  N   UNL     1       2.095   3.587   6.243  0.00  0.00    +0.000 NA
ATOM     28  C   UNL     1       3.300   2.809   6.087  0.00  0.00    +0.000 C 
ATOM     29  C   UNL     1       3.022   1.401   6.554  0.00  0.00    +0.000 C 
ATOM     30  C   UNL     1       2.401   1.305   7.958  0.00  0.00    +0.000 C 
ATOM     31  C   UNL     1       1.629   2.555   8.442  0.00  0.00    +0.000 C 
ATOM     32  C   UNL     1       2.012   3.805   7.676  0.00  0.00    +0.000 C 
ENDBRANCH  16  27
BRANCH   4  33
ATOM     33  O   UNL     1       3.295   1.396  -3.163  0.00  0.00    +0.000 OA
BRANCH  33  34
ATOM     34  C   UNL     1       3.314   2.677  -3.599  0.00  0.00    +0.000 C 
ATOM     35  C   UNL     1       2.297   3.618  -3.041  0.00  0.00    +0.000 C 
ATOM     36  O   UNL     1       4.158   3.029  -4.380  0.00  0.00    +0.000 OA
ENDBRANCH  33  34
ENDBRANCH   4  33
BRANCH  15  37
ATOM     37  O   UNL     1      -1.320   1.947   5.409  0.00  0.00    +0.000 OA
BRANCH  37  38
ATOM     38  C   UNL     1      -2.201   2.869   5.865  0.00  0.00    +0.000 C 
ATOM     39  C   UNL     1      -1.719   4.067   6.643  0.00  0.00    +0.000 C 
ATOM     40  O   UNL     1      -3.381   2.774   5.555  0.00  0.00    +0.000 OA
ENDBRANCH  37  38
ENDBRANCH  15  37
TORSDOF 6
