REMARK  Name = Vemurafenib
REMARK  8 active torsions:
REMARK  status: ('A' for Active; 'I' for Inactive)
REMARK    1  A    between atoms: C_1  and  C_2
REMARK    2  A    between atoms: C_2  and  C_3
REMARK    3  A    between atoms: C_3  and  S_4
REMARK    4  A    between atoms: S_4  and  N_7
REMARK    5  A    between atoms: N_7  and  C_8
REMARK    6  A    between atoms: C_11  and  C_12
REMARK    7  A    between atoms: C_12  and  C_14
REMARK    8  A    between atoms: C_20  and  C_23
REMARK                            x       y       z     vdW  Elec       q    Type
REMARK                         _______ _______ _______ _____ _____    ______ ____
ROOT
ATOM      1  C   UNL     1       9.893   2.708   0.274  0.00  0.00    +0.000 C 
ATOM      2  O   UNL     1      11.106   2.791   0.439  0.00  0.00    +0.000 OA
ENDROOT
BRANCH   1   3
ATOM      3  C   UNL     1       9.341   2.698  -1.084  0.00  0.00    +0.000 A 
ATOM      4  C   UNL     1       9.658   1.761  -2.057  0.00  0.00    +0.000 A 
ATOM      5  N   UNL     1       8.899   2.018  -3.172  0.00  0.00    +0.000 N 
ATOM      6  C   UNL     1       8.137   3.133  -2.967  0.00  0.00    +0.000 A 
ATOM      7  N   UNL     1       7.284   3.648  -3.871  0.00  0.00    +0.000 NA
ATOM      8  C   UNL     1       6.651   4.757  -3.415  0.00  0.00    +0.000 A 
ATOM      9  C   UNL     1       6.820   5.360  -2.164  0.00  0.00    +0.000 A 
ATOM     10  C   UNL     1       7.727   4.766  -1.278  0.00  0.00    +0.000 A 
ATOM     11  C   UNL     1       8.412   3.609  -1.690  0.00  0.00    +0.000 A 
ATOM     12  H   UNL     1       8.887   1.487  -4.030  0.00  0.00    +0.000 HD
BRANCH   9  13
ATOM     13  C   UNL     1       6.080   6.567  -1.792  0.00  0.00    +0.000 A 
ATOM     14  C   UNL     1       4.676   6.569  -1.786  0.00  0.00    +0.000 A 
ATOM     15  C   UNL     1       3.965   7.731  -1.482  0.00  0.00    +0.000 A 
ATOM     16  C   UNL     1       4.653   8.901  -1.175  0.00  0.00    +0.000 A 
ATOM     17 CL   UNL     1       3.775  10.340  -0.832  0.00  0.00    +0.000 Cl
ATOM     18  C   UNL     1       6.046   8.916  -1.148  0.00  0.00    +0.000 A 
ATOM     19  C   UNL     1       6.755   7.751  -1.454  0.00  0.00    +0.000 A 
ENDBRANCH   9  13
ENDBRANCH   1   3
BRANCH   1  23
ATOM     20  C   UNL     1       6.731   2.207   2.399  0.00  0.00    +0.000 A 
ATOM     21  C   UNL     1       7.618   2.368   1.323  0.00  0.00    +0.000 A 
ATOM     22  F   UNL     1       7.094   2.382   0.105  0.00  0.00    +0.000 F 
ATOM     23  C   UNL     1       8.992   2.568   1.463  0.00  0.00    +0.000 A 
ATOM     24  C   UNL     1       9.492   2.603   2.763  0.00  0.00    +0.000 A 
ATOM     25  F   UNL     1      10.800   2.765   3.010  0.00  0.00    +0.000 F 
ATOM     26  C   UNL     1       8.637   2.473   3.868  0.00  0.00    +0.000 A 
ATOM     27  C   UNL     1       7.255   2.283   3.690  0.00  0.00    +0.000 A 
BRANCH  20  28
ATOM     28  N   UNL     1       5.310   2.045   2.169  0.00  0.00    +0.000 N 
ATOM     29  H   UNL     1       4.648   2.468   2.814  0.00  0.00    +0.000 HD
BRANCH  28  30
ATOM     30  S   UNL     1       4.783   0.907   1.029  0.00  0.00    +0.000 S 
ATOM     31  O   UNL     1       5.225  -0.389   1.487  0.00  0.00    +0.000 OA
ATOM     32  O   UNL     1       5.090   1.379  -0.306  0.00  0.00    +0.000 OA
BRANCH  30  33
ATOM     33  C   UNL     1       2.990   0.949   1.104  0.00  0.00    +0.000 C 
BRANCH  33  35
ATOM     34  C   UNL     1       0.906  -0.014   0.019  0.00  0.00    +0.000 C 
ATOM     35  C   UNL     1       2.423  -0.007   0.042  0.00  0.00    +0.000 C 
ENDBRANCH  33  35
ENDBRANCH  30  33
ENDBRANCH  28  30
ENDBRANCH  20  28
ENDBRANCH   1  23
TORSDOF 7
