REMARK  Name = Venlafaxine
REMARK  9 active torsions:
REMARK  status: ('A' for Active; 'I' for Inactive)
REMARK    1  A    between atoms: C_1  and  O_2
REMARK    2  A    between atoms: O_2  and  C_3
REMARK    3  A    between atoms: C_6  and  C_9
REMARK    4  A    between atoms: C_9  and  C_10
REMARK    5  A    between atoms: C_9  and  C_14
REMARK    6  A    between atoms: C_10  and  N_11
REMARK    7  A    between atoms: N_11  and  C_12
REMARK    8  A    between atoms: N_11  and  C_13
REMARK    9  A    between atoms: C_14  and  O_15
REMARK                            x       y       z     vdW  Elec       q    Type
REMARK                         _______ _______ _______ _____ _____    ______ ____
ROOT
ATOM      1  C   UNL     1       5.644  -3.292   3.274  0.00  0.00    +0.000 C 
ENDROOT
BRANCH   1   5
ATOM      2  C   UNL     1       3.076  -0.749   0.744  0.00  0.00    +0.000 A 
ATOM      3  C   UNL     1       4.407  -0.431   0.989  0.00  0.00    +0.000 A 
ATOM      4  C   UNL     1       5.339  -1.370   1.481  0.00  0.00    +0.000 A 
ATOM      5  C   UNL     1       4.845  -2.517   2.102  0.00  0.00    +0.000 A 
ATOM      6  C   UNL     1       3.549  -2.881   1.673  0.00  0.00    +0.000 A 
ATOM      7  C   UNL     1       2.661  -2.038   1.028  0.00  0.00    +0.000 A 
BRANCH   2   9
ATOM      8  C   UNL     1       0.916   0.005   0.103  0.00  0.00    +0.000 C 
ATOM      9  O   UNL     1       2.321   0.217   0.165  0.00  0.00    +0.000 OA
ENDBRANCH   2   9
ENDBRANCH   1   5
BRANCH   1  10
ATOM     10  C   UNL     1       4.929  -4.721   3.415  0.00  0.00    +0.000 C 
ATOM     11  C   UNL     1       5.452  -6.069   3.947  0.00  0.00    +0.000 C 
ATOM     12  C   UNL     1       5.127  -6.514   5.363  0.00  0.00    +0.000 C 
ATOM     13  C   UNL     1       3.679  -6.257   5.755  0.00  0.00    +0.000 C 
ATOM     14  C   UNL     1       3.340  -4.811   5.510  0.00  0.00    +0.000 C 
ATOM     15  C   UNL     1       3.501  -4.495   4.032  0.00  0.00    +0.000 C 
BRANCH  10  16
ATOM     16  O   UNL     1       4.933  -5.148   2.004  0.00  0.00    +0.000 OA
ATOM     17  H   UNL     1       5.848  -5.000   1.683  0.00  0.00    +0.000 HD
ENDBRANCH  10  16
ENDBRANCH   1  10
BRANCH   1  18
ATOM     18  C   UNL     1       5.796  -2.531   4.693  0.00  0.00    +0.000 C 
BRANCH  18  19
ATOM     19  N   UNL     1       6.459  -1.190   4.737  0.00  0.00    +0.000 NA
ATOM     20  C   UNL     1       5.586  -0.157   4.193  0.00  0.00    +0.000 C 
ATOM     21  C   UNL     1       6.717  -0.705   6.101  0.00  0.00    +0.000 C 
ENDBRANCH  18  19
ENDBRANCH   1  18
TORSDOF 6
