REMARK  Name = Verapamil
REMARK  21 active torsions:
REMARK  status: ('A' for Active; 'I' for Inactive)
REMARK    1  A    between atoms: C_1  and  O_2
REMARK    2  A    between atoms: O_2  and  C_3
REMARK    3  A    between atoms: C_4  and  O_5
REMARK    4  A    between atoms: O_5  and  C_6
REMARK    5  A    between atoms: C_8  and  C_9
REMARK    6  A    between atoms: C_9  and  C_10
REMARK    7  A    between atoms: C_10  and  N_11
REMARK    8  A    between atoms: N_11  and  C_12
REMARK    9  A    between atoms: N_11  and  C_13
REMARK   10  A    between atoms: C_13  and  C_14
REMARK   11  A    between atoms: C_14  and  C_15
REMARK   12  A    between atoms: C_15  and  C_16
REMARK   13  A    between atoms: C_16  and  C_17
REMARK   14  A    between atoms: C_16  and  C_19
REMARK   15  A    between atoms: C_16  and  C_22
REMARK   16  A    between atoms: C_19  and  C_20
REMARK   17  A    between atoms: C_19  and  C_21
REMARK   18  A    between atoms: C_24  and  O_25
REMARK   19  A    between atoms: O_25  and  C_26
REMARK   20  A    between atoms: C_27  and  O_28
REMARK   21  A    between atoms: O_28  and  C_29
REMARK                            x       y       z     vdW  Elec       q    Type
REMARK                         _______ _______ _______ _____ _____    ______ ____
ROOT
ATOM      1  C   UNL     1       4.790   1.065  10.645  0.00  0.00    +0.000 C 
ENDROOT
BRANCH   1   2
ATOM      2  C   UNL     1       5.447   1.388   9.325  0.00  0.00    +0.000 C 
BRANCH   2   3
ATOM      3  C   UNL     1       4.704   1.009   8.078  0.00  0.00    +0.000 C 
BRANCH   3   4
ATOM      4  N   UNL     1       5.446   1.548   6.914  0.00  0.00    +0.000 NA
ATOM      5  C   UNL     1       5.565   3.015   6.914  0.00  0.00    +0.000 C 
BRANCH   4   6
ATOM      6  C   UNL     1       4.727   1.105   5.726  0.00  0.00    +0.000 C 
BRANCH   6   7
ATOM      7  C   UNL     1       5.391   1.469   4.396  0.00  0.00    +0.000 C 
BRANCH   7  11
ATOM      8  C   UNL     1       2.984   0.391   0.991  0.00  0.00    +0.000 A 
ATOM      9  C   UNL     1       4.167   1.129   0.816  0.00  0.00    +0.000 A 
ATOM     10  C   UNL     1       4.976   1.403   1.926  0.00  0.00    +0.000 A 
ATOM     11  C   UNL     1       4.566   1.036   3.214  0.00  0.00    +0.000 A 
ATOM     12  C   UNL     1       3.361   0.346   3.367  0.00  0.00    +0.000 A 
ATOM     13  C   UNL     1       2.582   0.021   2.273  0.00  0.00    +0.000 A 
BRANCH   8  15
ATOM     14  C   UNL     1       0.899  -0.064  -0.024  0.00  0.00    +0.000 C 
ATOM     15  O   UNL     1       2.317  -0.088  -0.102  0.00  0.00    +0.000 OA
ENDBRANCH   8  15
BRANCH   9  16
ATOM     16  O   UNL     1       4.646   1.663  -0.355  0.00  0.00    +0.000 OA
ATOM     17  C   UNL     1       3.756   1.665  -1.464  0.00  0.00    +0.000 C 
ENDBRANCH   9  16
ENDBRANCH   7  11
ENDBRANCH   6   7
ENDBRANCH   4   6
ENDBRANCH   3   4
ENDBRANCH   2   3
ENDBRANCH   1   2
BRANCH   1  18
ATOM     18  C   UNL     1       5.609   1.606  11.854  0.00  0.00    +0.000 C 
BRANCH  18  19
ATOM     19  C   UNL     1       4.874   1.125  13.135  0.00  0.00    +0.000 A 
ATOM     20  C   UNL     1       4.263   1.987  14.064  0.00  0.00    +0.000 A 
ATOM     21  C   UNL     1       3.892   1.557  15.342  0.00  0.00    +0.000 A 
ATOM     22  C   UNL     1       3.892   0.181  15.619  0.00  0.00    +0.000 A 
ATOM     23  C   UNL     1       4.387  -0.702  14.661  0.00  0.00    +0.000 A 
ATOM     24  C   UNL     1       4.885  -0.245  13.448  0.00  0.00    +0.000 A 
BRANCH  21  25
ATOM     25  O   UNL     1       3.607   2.580  16.216  0.00  0.00    +0.000 OA
ATOM     26  C   UNL     1       3.494   2.242  17.598  0.00  0.00    +0.000 C 
ENDBRANCH  21  25
BRANCH  22  27
ATOM     27  O   UNL     1       3.379  -0.216  16.816  0.00  0.00    +0.000 OA
ATOM     28  C   UNL     1       3.261  -1.601  17.070  0.00  0.00    +0.000 C 
ENDBRANCH  22  27
ENDBRANCH  18  19
BRANCH  18  29
ATOM     29  C   UNL     1       5.828   3.206  11.872  0.00  0.00    +0.000 C 
ATOM     30  C   UNL     1       6.631   3.690  13.106  0.00  0.00    +0.000 C 
ATOM     31  C   UNL     1       6.587   3.860  10.698  0.00  0.00    +0.000 C 
ENDBRANCH  18  29
BRANCH  18  32
ATOM     32  C   UNL     1       6.999   0.992  11.820  0.00  0.00    +0.000 C 
ATOM     33  N   UNL     1       8.152   0.482  11.791  0.00  0.00    +0.000 NA
ENDBRANCH  18  32
ENDBRANCH   1  18
TORSDOF 14
