REMARK  Name = Vericiguat
REMARK  7 active torsions:
REMARK  status: ('A' for Active; 'I' for Inactive)
REMARK    1  A    between atoms: C_1  and  O_2
REMARK    2  A    between atoms: O_2  and  C_3
REMARK    3  A    between atoms: N_5  and  C_6
REMARK    4  A    between atoms: C_7  and  N_8
REMARK    5  A    between atoms: C_10  and  C_14
REMARK    6  A    between atoms: N_16  and  C_17
REMARK    7  A    between atoms: C_17  and  C_18
REMARK                            x       y       z     vdW  Elec       q    Type
REMARK                         _______ _______ _______ _____ _____    ______ ____
ROOT
ATOM      1  C   UNL     1       5.255   2.539  -0.490  0.00  0.00    +0.000 A 
ATOM      2  C   UNL     1       4.945   3.775   0.092  0.00  0.00    +0.000 A 
ATOM      3  N   UNL     1       5.649   4.898  -0.130  0.00  0.00    +0.000 NA
ATOM      4  C   UNL     1       6.718   4.785  -0.935  0.00  0.00    +0.000 A 
ATOM      5  N   UNL     1       7.101   3.650  -1.564  0.00  0.00    +0.000 NA
ATOM      6  C   UNL     1       6.379   2.540  -1.316  0.00  0.00    +0.000 A 
ATOM      7  N   UNL     1       6.850   1.382  -1.913  0.00  0.00    +0.000 N 
ATOM      8  H   UNL     1       7.601   1.511  -2.582  0.00  0.00    +0.000 HD
ATOM      9  H   UNL     1       6.291   0.549  -1.960  0.00  0.00    +0.000 HD
ENDROOT
BRANCH   4  10
ATOM     10  C   UNL     1       7.444   6.021  -1.286  0.00  0.00    +0.000 A 
ATOM     11  N   UNL     1       8.087   6.826  -0.407  0.00  0.00    +0.000 NA
ATOM     12  N   UNL     1       8.607   7.830  -1.179  0.00  0.00    +0.000 N 
ATOM     13  C   UNL     1       8.343   7.657  -2.517  0.00  0.00    +0.000 A 
ATOM     14  C   UNL     1       7.548   6.529  -2.610  0.00  0.00    +0.000 A 
ATOM     15  C   UNL     1       7.066   6.167  -3.878  0.00  0.00    +0.000 A 
ATOM     16  C   UNL     1       7.397   6.988  -4.946  0.00  0.00    +0.000 A 
ATOM     17  F   UNL     1       6.947   6.703  -6.173  0.00  0.00    +0.000 F 
ATOM     18  C   UNL     1       8.204   8.088  -4.738  0.00  0.00    +0.000 A 
ATOM     19  N   UNL     1       8.736   8.433  -3.550  0.00  0.00    +0.000 NA
BRANCH  12  20
ATOM     20  C   UNL     1       9.356   8.907  -0.518  0.00  0.00    +0.000 C 
BRANCH  20  21
ATOM     21  C   UNL     1       9.877  10.008  -1.407  0.00  0.00    +0.000 A 
ATOM     22  C   UNL     1      11.253  10.258  -1.497  0.00  0.00    +0.000 A 
ATOM     23  C   UNL     1      11.735  11.257  -2.346  0.00  0.00    +0.000 A 
ATOM     24  C   UNL     1      10.853  11.989  -3.143  0.00  0.00    +0.000 A 
ATOM     25  C   UNL     1       9.485  11.744  -3.071  0.00  0.00    +0.000 A 
ATOM     26  C   UNL     1       9.006  10.794  -2.175  0.00  0.00    +0.000 A 
ATOM     27  F   UNL     1       7.683  10.578  -2.119  0.00  0.00    +0.000 F 
ENDBRANCH  20  21
ENDBRANCH  12  20
ENDBRANCH   4  10
BRANCH   1  30
ATOM     28  C   UNL     1       3.095   1.357  -0.283  0.00  0.00    +0.000 C 
ATOM     29  O   UNL     1       2.396   2.353  -0.484  0.00  0.00    +0.000 OA
ATOM     30  N   UNL     1       4.473   1.356  -0.274  0.00  0.00    +0.000 N 
ATOM     31  H   UNL     1       4.941   0.461  -0.283  0.00  0.00    +0.000 HD
BRANCH  28  33
ATOM     32  C   UNL     1       1.121   0.116  -0.039  0.00  0.00    +0.000 C 
ATOM     33  O   UNL     1       2.564   0.124  -0.053  0.00  0.00    +0.000 OA
ENDBRANCH  28  33
ENDBRANCH   1  30
BRANCH   2  34
ATOM     34  N   UNL     1       4.008   3.866   1.130  0.00  0.00    +0.000 N 
ATOM     35  H   UNL     1       3.185   3.297   0.957  0.00  0.00    +0.000 HD
ATOM     36  H   UNL     1       3.775   4.843   1.271  0.00  0.00    +0.000 HD
ENDBRANCH   2  34
TORSDOF 6
