REMARK  Name = Vernakalant
REMARK  10 active torsions:
REMARK  status: ('A' for Active; 'I' for Inactive)
REMARK    1  A    between atoms: C_1  and  O_2
REMARK    2  A    between atoms: O_2  and  C_3
REMARK    3  A    between atoms: C_4  and  O_5
REMARK    4  A    between atoms: O_5  and  C_6
REMARK    5  A    between atoms: C_8  and  C_9
REMARK    6  A    between atoms: C_9  and  C_10
REMARK    7  A    between atoms: C_10  and  O_11
REMARK    8  A    between atoms: O_11  and  C_12
REMARK    9  A    between atoms: C_17  and  N_18
REMARK   10  A    between atoms: C_21  and  O_22
REMARK                            x       y       z     vdW  Elec       q    Type
REMARK                         _______ _______ _______ _____ _____    ______ ____
ROOT
ATOM      1  O   UNL     1       5.428   3.829   6.011  0.00  0.00    +0.000 OA
ENDROOT
BRANCH   1   2
ATOM      2  C   UNL     1       4.714   3.793   7.272  0.00  0.00    +0.000 C 
ATOM      3  C   UNL     1       5.108   5.039   8.066  0.00  0.00    +0.000 C 
ATOM      4  C   UNL     1       4.453   5.057   9.443  0.00  0.00    +0.000 C 
ATOM      5  C   UNL     1       4.844   3.832  10.252  0.00  0.00    +0.000 C 
ATOM      6  C   UNL     1       4.436   2.571   9.526  0.00  0.00    +0.000 C 
ATOM      7  C   UNL     1       5.001   2.484   8.091  0.00  0.00    +0.000 C 
BRANCH   7   8
ATOM      8  N   UNL     1       4.469   1.282   7.417  0.00  0.00    +0.000 NA
ATOM      9  C   UNL     1       3.007   1.273   7.267  0.00  0.00    +0.000 C 
ATOM     10  C   UNL     1       2.521   0.119   8.107  0.00  0.00    +0.000 C 
ATOM     11  C   UNL     1       3.663  -0.871   7.995  0.00  0.00    +0.000 C 
ATOM     12  C   UNL     1       4.914   0.005   7.999  0.00  0.00    +0.000 C 
BRANCH  11  13
ATOM     13  O   UNL     1       3.552  -1.574   6.757  0.00  0.00    +0.000 OA
ATOM     14  H   UNL     1       3.790  -0.940   6.054  0.00  0.00    +0.000 HD
ENDBRANCH  11  13
ENDBRANCH   7   8
ENDBRANCH   1   2
BRANCH   1  15
ATOM     15  C   UNL     1       4.725   3.086   5.019  0.00  0.00    +0.000 C 
BRANCH  15  16
ATOM     16  C   UNL     1       5.403   3.009   3.658  0.00  0.00    +0.000 C 
BRANCH  16  20
ATOM     17  C   UNL     1       3.002   0.838   0.746  0.00  0.00    +0.000 A 
ATOM     18  C   UNL     1       4.204   1.465   0.358  0.00  0.00    +0.000 A 
ATOM     19  C   UNL     1       5.002   2.096   1.333  0.00  0.00    +0.000 A 
ATOM     20  C   UNL     1       4.578   2.210   2.658  0.00  0.00    +0.000 A 
ATOM     21  C   UNL     1       3.359   1.601   3.006  0.00  0.00    +0.000 A 
ATOM     22  C   UNL     1       2.591   0.922   2.066  0.00  0.00    +0.000 A 
BRANCH  17  24
ATOM     23  C   UNL     1       0.918   0.060  -0.080  0.00  0.00    +0.000 C 
ATOM     24  O   UNL     1       2.338   0.040  -0.147  0.00  0.00    +0.000 OA
ENDBRANCH  17  24
BRANCH  18  25
ATOM     25  O   UNL     1       4.708   1.567  -0.914  0.00  0.00    +0.000 OA
ATOM     26  C   UNL     1       3.826   1.238  -1.983  0.00  0.00    +0.000 C 
ENDBRANCH  18  25
ENDBRANCH  16  20
ENDBRANCH  15  16
ENDBRANCH   1  15
TORSDOF 8
