REMARK  Name = Vibegron
REMARK  7 active torsions:
REMARK  status: ('A' for Active; 'I' for Inactive)
REMARK    1  A    between atoms: C_2  and  C_27
REMARK    2  A    between atoms: C_5  and  C_6
REMARK    3  A    between atoms: C_6  and  C_7
REMARK    4  A    between atoms: C_10  and  N_11
REMARK    5  A    between atoms: C_12  and  C_14
REMARK    6  A    between atoms: C_27  and  O_28
REMARK    7  A    between atoms: C_27  and  C_29
REMARK                            x       y       z     vdW  Elec       q    Type
REMARK                         _______ _______ _______ _____ _____    ______ ____
ROOT
ATOM      1  C   UNL     1      22.837   0.350  -1.919  0.00  0.00    +0.000 A 
ATOM      2  C   UNL     1      23.369  -0.500  -0.955  0.00  0.00    +0.000 A 
ATOM      3  C   UNL     1      24.453  -0.068  -0.182  0.00  0.00    +0.000 A 
ATOM      4  C   UNL     1      25.051   1.174  -0.448  0.00  0.00    +0.000 A 
ATOM      5  C   UNL     1      24.467   2.020  -1.358  0.00  0.00    +0.000 A 
ATOM      6  C   UNL     1      23.369   1.624  -2.054  0.00  0.00    +0.000 A 
ENDROOT
BRANCH   4   7
ATOM      7  N   UNL     1      26.239   1.569   0.173  0.00  0.00    +0.000 N 
ATOM      8  C   UNL     1      26.894   2.784  -0.061  0.00  0.00    +0.000 C 
ATOM      9  O   UNL     1      26.605   3.637  -0.902  0.00  0.00    +0.000 OA
ATOM     10  H   UNL     1      26.618   0.914   0.844  0.00  0.00    +0.000 HD
BRANCH   8  11
ATOM     11  C   UNL     1      28.165   3.037   0.724  0.00  0.00    +0.000 C 
ATOM     12  C   UNL     1      29.371   2.817  -0.182  0.00  0.00    +0.000 C 
ATOM     13  C   UNL     1      30.120   1.613   0.399  0.00  0.00    +0.000 C 
ATOM     14  C   UNL     1      29.328   1.235   1.629  0.00  0.00    +0.000 A 
ATOM     15  N   UNL     1      29.546   0.256   2.444  0.00  0.00    +0.000 NA
ATOM     16  C   UNL     1      28.651   0.143   3.494  0.00  0.00    +0.000 A 
ATOM     17  C   UNL     1      27.612   0.951   3.738  0.00  0.00    +0.000 A 
ATOM     18  C   UNL     1      27.397   2.083   2.833  0.00  0.00    +0.000 A 
ATOM     19  O   UNL     1      26.445   2.829   2.961  0.00  0.00    +0.000 OA
ATOM     20  N   UNL     1      28.288   2.111   1.791  0.00  0.00    +0.000 N 
ENDBRANCH   8  11
ENDBRANCH   4   7
BRANCH   1  21
ATOM     21  C   UNL     1      21.606   0.003  -2.685  0.00  0.00    +0.000 C 
BRANCH  21  25
ATOM     22  C   UNL     1      19.952   1.124  -5.518  0.00  0.00    +0.000 C 
ATOM     23  C   UNL     1      21.205   1.875  -5.908  0.00  0.00    +0.000 C 
ATOM     24  C   UNL     1      22.112   1.588  -4.743  0.00  0.00    +0.000 C 
ATOM     25  C   UNL     1      21.741   0.195  -4.219  0.00  0.00    +0.000 C 
ATOM     26  N   UNL     1      20.504  -0.130  -4.935  0.00  0.00    +0.000 NA
ATOM     27  H   UNL     1      19.845  -0.578  -4.303  0.00  0.00    +0.000 HD
BRANCH  22  28
ATOM     28  C   UNL     1      18.988   1.919  -4.575  0.00  0.00    +0.000 C 
BRANCH  28  29
ATOM     29  C   UNL     1      17.771   1.111  -4.162  0.00  0.00    +0.000 A 
ATOM     30  C   UNL     1      17.454  -0.120  -4.761  0.00  0.00    +0.000 A 
ATOM     31  C   UNL     1      16.281  -0.790  -4.458  0.00  0.00    +0.000 A 
ATOM     32  C   UNL     1      15.420  -0.260  -3.511  0.00  0.00    +0.000 A 
ATOM     33  C   UNL     1      15.733   0.939  -2.868  0.00  0.00    +0.000 A 
ATOM     34  C   UNL     1      16.905   1.621  -3.186  0.00  0.00    +0.000 A 
ENDBRANCH  28  29
BRANCH  28  35
ATOM     35  O   UNL     1      19.641   2.369  -3.394  0.00  0.00    +0.000 OA
ATOM     36  H   UNL     1      19.616   1.601  -2.807  0.00  0.00    +0.000 HD
ENDBRANCH  28  35
ENDBRANCH  22  28
ENDBRANCH  21  25
ENDBRANCH   1  21
TORSDOF 7
