REMARK  Name = Vidarabine
REMARK  5 active torsions:
REMARK  status: ('A' for Active; 'I' for Inactive)
REMARK    1  A    between atoms: N9_10  and  C1*_11
REMARK    2  A    between atoms: C4*_13  and  C5*_14
REMARK    3  A    between atoms: C5*_14  and  O5*_15
REMARK    4  A    between atoms: C3*_16  and  O3*_17
REMARK    5  A    between atoms: C2*_18  and  O2*_19
REMARK                            x       y       z     vdW  Elec       q    Type
REMARK                         _______ _______ _______ _____ _____    ______ ____
ROOT
ATOM      1  N6    A A   1       1.025   0.091   0.015  0.00  0.00    +0.000 N 
ATOM      2  C6    A A   1       2.401   0.061   0.030  0.00  0.00    +0.000 A 
ATOM      3  N1    A A   1       3.069   1.235   0.027  0.00  0.00    +0.000 NA
ATOM      4  C2    A A   1       4.416   1.203   0.028  0.00  0.00    +0.000 A 
ATOM      5  N3    A A   1       5.217   0.120   0.029  0.00  0.00    +0.000 NA
ATOM      6  C4    A A   1       4.519  -1.020   0.043  0.00  0.00    +0.000 A 
ATOM      7  C5    A A   1       3.136  -1.137   0.037  0.00  0.00    +0.000 A 
ATOM      8  N7    A A   1       2.759  -2.462   0.028  0.00  0.00    +0.000 NA
ATOM      9  C8    A A   1       3.891  -3.135   0.033  0.00  0.00    +0.000 A 
ATOM     10  N9    A A   1       4.988  -2.308   0.044  0.00  0.00    +0.000 N 
ATOM     11  H61   A A   1       0.564   0.986   0.033  0.00  0.00    +0.000 HD
ATOM     12  H62   A A   1       0.518  -0.782   0.035  0.00  0.00    +0.000 HD
ENDROOT
BRANCH  10  13
ATOM     13  C1*   A A   1       6.365  -2.773   0.033  0.00  0.00    +0.000 C 
ATOM     14  O4*   A A   1       7.024  -2.329   1.237  0.00  0.00    +0.000 OA
ATOM     15  C4*   A A   1       8.120  -1.464   0.864  0.00  0.00    +0.000 C 
ATOM     16  C3*   A A   1       7.945  -1.099  -0.613  0.00  0.00    +0.000 C 
ATOM     17  C2*   A A   1       7.243  -2.340  -1.147  0.00  0.00    +0.000 C 
BRANCH  16  18
ATOM     18  O3*   A A   1       9.162  -0.796  -1.288  0.00  0.00    +0.000 OA
ATOM     19  H3*   A A   1       9.775  -1.546  -1.233  0.00  0.00    +0.000 HD
ENDBRANCH  16  18
BRANCH  17  20
ATOM     20  O2*   A A   1       6.550  -2.164  -2.374  0.00  0.00    +0.000 OA
ATOM     21  H2*   A A   1       5.963  -1.389  -2.287  0.00  0.00    +0.000 HD
ENDBRANCH  17  20
BRANCH  15  22
ATOM     22  C5*   A A   1       8.166  -0.245   1.787  0.00  0.00    +0.000 C 
BRANCH  22  23
ATOM     23  O5*   A A   1       9.289   0.585   1.528  0.00  0.00    +0.000 OA
ATOM     24  H5*   A A   1      10.093   0.046   1.608  0.00  0.00    +0.000 HD
ENDBRANCH  22  23
ENDBRANCH  15  22
ENDBRANCH  10  13
TORSDOF 5
