REMARK  Name = Vigabatrin
REMARK  6 active torsions:
REMARK  status: ('A' for Active; 'I' for Inactive)
REMARK    1  A    between atoms: N_1  and  C_2
REMARK    2  A    between atoms: C_2  and  C_3
REMARK    3  A    between atoms: C_2  and  C_8
REMARK    4  A    between atoms: C_3  and  C_4
REMARK    5  A    between atoms: C_4  and  C_5
REMARK    6  A    between atoms: C_5  and  O_6
REMARK                            x       y       z     vdW  Elec       q    Type
REMARK                         _______ _______ _______ _____ _____    ______ ____
ROOT
ATOM      1  C   UNL     1       2.465   0.018   0.080  0.00  0.00    +0.000 C 
ENDROOT
BRANCH   1   2
ATOM      2  N   UNL     1       1.008  -0.017   0.030  0.00  0.00    +0.000 NA
ATOM      3  H   UNL     1       0.625   0.864   0.372  0.00  0.00    +0.000 HD
ATOM      4  H   UNL     1       0.654  -0.737   0.657  0.00  0.00    +0.000 HD
ENDBRANCH   1   2
BRANCH   1   5
ATOM      5  C   UNL     1       3.011  -1.253  -0.513  0.00  0.00    +0.000 C 
ATOM      6  C   UNL     1       4.321  -1.517  -0.631  0.00  0.00    +0.000 C 
ENDBRANCH   1   5
BRANCH   1   7
ATOM      7  C   UNL     1       2.967   0.179   1.521  0.00  0.00    +0.000 C 
BRANCH   7   8
ATOM      8  C   UNL     1       2.521   1.474   2.184  0.00  0.00    +0.000 C 
BRANCH   8   9
ATOM      9  C   UNL     1       3.005   1.674   3.600  0.00  0.00    +0.000 C 
ATOM     10  O   UNL     1       2.700   2.673   4.244  0.00  0.00    +0.000 OA
BRANCH   9  11
ATOM     11  O   UNL     1       3.776   0.712   4.138  0.00  0.00    +0.000 OA
ATOM     12  H   UNL     1       3.988  -0.066   3.592  0.00  0.00    +0.000 HD
ENDBRANCH   9  11
ENDBRANCH   8   9
ENDBRANCH   7   8
ENDBRANCH   1   7
TORSDOF 6
