REMARK  Name = Vilazodone
REMARK  8 active torsions:
REMARK  status: ('A' for Active; 'I' for Inactive)
REMARK    1  A    between atoms: C_2  and  C_4
REMARK    2  A    between atoms: C_8  and  N_13
REMARK    3  A    between atoms: N_16  and  C_17
REMARK    4  A    between atoms: C_17  and  C_18
REMARK    5  A    between atoms: C_18  and  C_19
REMARK    6  A    between atoms: C_19  and  C_20
REMARK    7  A    between atoms: C_20  and  C_21
REMARK    8  A    between atoms: C_27  and  C_30
REMARK                            x       y       z     vdW  Elec       q    Type
REMARK                         _______ _______ _______ _____ _____    ______ ____
ROOT
ATOM      1  N   UNL     1       6.740   4.743   3.761  0.00  0.00    +0.000 N 
ATOM      2  C   UNL     1       7.123   5.949   3.017  0.00  0.00    +0.000 C 
ATOM      3  C   UNL     1       7.228   7.147   4.010  0.00  0.00    +0.000 C 
ATOM      4  N   UNL     1       8.130   6.896   5.170  0.00  0.00    +0.000 NA
ATOM      5  C   UNL     1       7.652   5.656   5.846  0.00  0.00    +0.000 C 
ATOM      6  C   UNL     1       7.590   4.426   4.913  0.00  0.00    +0.000 C 
ENDROOT
BRANCH   1  11
ATOM      7  C   UNL     1       3.139   1.019   0.823  0.00  0.00    +0.000 A 
ATOM      8  C   UNL     1       4.308   1.711   0.555  0.00  0.00    +0.000 A 
ATOM      9  C   UNL     1       4.646   2.454   1.716  0.00  0.00    +0.000 A 
ATOM     10  C   UNL     1       5.682   3.345   2.083  0.00  0.00    +0.000 A 
ATOM     11  C   UNL     1       5.729   3.891   3.376  0.00  0.00    +0.000 A 
ATOM     12  C   UNL     1       4.716   3.531   4.281  0.00  0.00    +0.000 A 
ATOM     13  C   UNL     1       3.667   2.652   3.946  0.00  0.00    +0.000 A 
ATOM     14  C   UNL     1       3.666   2.144   2.650  0.00  0.00    +0.000 A 
ATOM     15  O   UNL     1       2.732   1.299   2.107  0.00  0.00    +0.000 OA
BRANCH   7  17
ATOM     16  N   UNL     1       1.049   0.081   0.061  0.00  0.00    +0.000 N 
ATOM     17  C   UNL     1       2.417   0.070  -0.004  0.00  0.00    +0.000 C 
ATOM     18  O   UNL     1       2.963  -0.701  -0.791  0.00  0.00    +0.000 OA
ATOM     19  H   UNL     1       0.551  -0.544  -0.561  0.00  0.00    +0.000 HD
ATOM     20  H   UNL     1       0.526   0.747   0.609  0.00  0.00    +0.000 HD
ENDBRANCH   7  17
ENDBRANCH   1  11
BRANCH   4  21
ATOM     21  C   UNL     1       9.516   6.755   4.693  0.00  0.00    +0.000 C 
BRANCH  21  22
ATOM     22  C   UNL     1      10.480   6.474   5.837  0.00  0.00    +0.000 C 
BRANCH  22  23
ATOM     23  C   UNL     1      11.886   6.276   5.304  0.00  0.00    +0.000 C 
BRANCH  23  24
ATOM     24  C   UNL     1      12.833   5.975   6.458  0.00  0.00    +0.000 C 
BRANCH  24  25
ATOM     25  C   UNL     1      14.223   5.791   5.964  0.00  0.00    +0.000 A 
ATOM     26  C   UNL     1      15.111   6.806   5.675  0.00  0.00    +0.000 A 
ATOM     27  N   UNL     1      16.273   6.243   5.228  0.00  0.00    +0.000 N 
ATOM     28  C   UNL     1      16.165   4.872   5.223  0.00  0.00    +0.000 A 
ATOM     29  C   UNL     1      14.883   4.559   5.674  0.00  0.00    +0.000 A 
ATOM     30  C   UNL     1      14.506   3.203   5.760  0.00  0.00    +0.000 A 
ATOM     31  C   UNL     1      15.436   2.212   5.418  0.00  0.00    +0.000 A 
ATOM     32  C   UNL     1      16.715   2.559   4.975  0.00  0.00    +0.000 A 
ATOM     33  C   UNL     1      17.101   3.898   4.860  0.00  0.00    +0.000 A 
ATOM     34  H   UNL     1      17.097   6.756   4.950  0.00  0.00    +0.000 HD
BRANCH  31  35
ATOM     35  C   UNL     1      15.075   0.827   5.533  0.00  0.00    +0.000 C 
ATOM     36  N   UNL     1      14.792  -0.290   5.628  0.00  0.00    +0.000 NA
ENDBRANCH  31  35
ENDBRANCH  24  25
ENDBRANCH  23  24
ENDBRANCH  22  23
ENDBRANCH  21  22
ENDBRANCH   4  21
TORSDOF 8
