REMARK  Name = Vilanterol
REMARK  19 active torsions:
REMARK  status: ('A' for Active; 'I' for Inactive)
REMARK    1  A    between atoms: O_1  and  C_2
REMARK    2  A    between atoms: C_2  and  C_3
REMARK    3  A    between atoms: C_4  and  O_5
REMARK    4  A    between atoms: C_8  and  C_10
REMARK    5  A    between atoms: C_10  and  O_11
REMARK    6  A    between atoms: C_10  and  C_12
REMARK    7  A    between atoms: C_12  and  N_13
REMARK    8  A    between atoms: N_13  and  C_14
REMARK    9  A    between atoms: C_14  and  C_15
REMARK   10  A    between atoms: C_15  and  C_16
REMARK   11  A    between atoms: C_16  and  C_17
REMARK   12  A    between atoms: C_17  and  C_18
REMARK   13  A    between atoms: C_18  and  C_19
REMARK   14  A    between atoms: C_19  and  O_20
REMARK   15  A    between atoms: O_20  and  C_21
REMARK   16  A    between atoms: C_21  and  C_22
REMARK   17  A    between atoms: C_22  and  O_23
REMARK   18  A    between atoms: O_23  and  C_24
REMARK   19  A    between atoms: C_24  and  C_25
REMARK                            x       y       z     vdW  Elec       q    Type
REMARK                         _______ _______ _______ _____ _____    ______ ____
ROOT
ATOM      1  C   UNL     1       4.545   5.033   4.049  0.00  0.00    +0.000 C 
ENDROOT
BRANCH   1   2
ATOM      2  N   UNL     1       4.573   3.768   4.765  0.00  0.00    +0.000 NA
ATOM      3  H   UNL     1       5.515   3.548   5.095  0.00  0.00    +0.000 HD
BRANCH   2   4
ATOM      4  C   UNL     1       4.129   2.710   3.864  0.00  0.00    +0.000 C 
BRANCH   4   5
ATOM      5  C   UNL     1       4.167   1.313   4.510  0.00  0.00    +0.000 C 
BRANCH   5  10
ATOM      6  C   UNL     1       2.890  -0.528   1.360  0.00  0.00    +0.000 A 
ATOM      7  C   UNL     1       2.896  -1.837   1.837  0.00  0.00    +0.000 A 
ATOM      8  C   UNL     1       3.276  -2.127   3.147  0.00  0.00    +0.000 A 
ATOM      9  C   UNL     1       3.682  -1.103   4.005  0.00  0.00    +0.000 A 
ATOM     10  C   UNL     1       3.718   0.219   3.557  0.00  0.00    +0.000 A 
ATOM     11  C   UNL     1       3.307   0.488   2.236  0.00  0.00    +0.000 A 
BRANCH   7  12
ATOM     12  O   UNL     1       2.542  -2.908   1.065  0.00  0.00    +0.000 OA
ATOM     13  H   UNL     1       2.165  -2.581   0.235  0.00  0.00    +0.000 HD
ENDBRANCH   7  12
BRANCH   6  14
ATOM     14  C   UNL     1       2.421  -0.135  -0.012  0.00  0.00    +0.000 C 
BRANCH  14  15
ATOM     15  O   UNL     1       1.003  -0.173  -0.028  0.00  0.00    +0.000 OA
ATOM     16  H   UNL     1       0.712   0.157  -0.895  0.00  0.00    +0.000 HD
ENDBRANCH  14  15
ENDBRANCH   6  14
ENDBRANCH   5  10
BRANCH   5  17
ATOM     17  O   UNL     1       5.508   1.042   4.941  0.00  0.00    +0.000 OA
ATOM     18  H   UNL     1       6.048   0.947   4.140  0.00  0.00    +0.000 HD
ENDBRANCH   5  17
ENDBRANCH   4   5
ENDBRANCH   2   4
ENDBRANCH   1   2
BRANCH   1  19
ATOM     19  C   UNL     1       5.002   6.127   4.990  0.00  0.00    +0.000 C 
BRANCH  19  20
ATOM     20  C   UNL     1       4.954   7.464   4.272  0.00  0.00    +0.000 C 
BRANCH  20  21
ATOM     21  C   UNL     1       5.412   8.562   5.210  0.00  0.00    +0.000 C 
BRANCH  21  22
ATOM     22  C   UNL     1       5.374   9.907   4.510  0.00  0.00    +0.000 C 
BRANCH  22  23
ATOM     23  C   UNL     1       5.836  10.985   5.466  0.00  0.00    +0.000 C 
BRANCH  23  24
ATOM     24  O   UNL     1       5.791  12.227   4.781  0.00  0.00    +0.000 OA
BRANCH  24  25
ATOM     25  C   UNL     1       6.211  13.274   5.644  0.00  0.00    +0.000 C 
BRANCH  25  26
ATOM     26  C   UNL     1       6.141  14.584   4.888  0.00  0.00    +0.000 C 
BRANCH  26  27
ATOM     27  O   UNL     1       6.522  15.610   5.785  0.00  0.00    +0.000 OA
BRANCH  27  28
ATOM     28  C   UNL     1       6.574  16.882   5.169  0.00  0.00    +0.000 C 
BRANCH  28  29
ATOM     29  C   UNL     1       6.958  17.967   6.149  0.00  0.00    +0.000 A 
ATOM     30  C   UNL     1       7.628  17.745   7.371  0.00  0.00    +0.000 A 
ATOM     31 CL   UNL     1       8.233  16.208   7.899  0.00  0.00    +0.000 Cl
ATOM     32  C   UNL     1       7.877  18.803   8.255  0.00  0.00    +0.000 A 
ATOM     33  C   UNL     1       7.503  20.102   7.932  0.00  0.00    +0.000 A 
ATOM     34  C   UNL     1       6.901  20.354   6.707  0.00  0.00    +0.000 A 
ATOM     35  C   UNL     1       6.640  19.303   5.822  0.00  0.00    +0.000 A 
ATOM     36 CL   UNL     1       5.919  19.732   4.304  0.00  0.00    +0.000 Cl
ENDBRANCH  28  29
ENDBRANCH  27  28
ENDBRANCH  26  27
ENDBRANCH  25  26
ENDBRANCH  24  25
ENDBRANCH  23  24
ENDBRANCH  22  23
ENDBRANCH  21  22
ENDBRANCH  20  21
ENDBRANCH  19  20
ENDBRANCH   1  19
TORSDOF 19
