REMARK  Name = Vildagliptin
REMARK  5 active torsions:
REMARK  status: ('A' for Active; 'I' for Inactive)
REMARK    1  A    between atoms: O_1  and  C_2
REMARK    2  A    between atoms: C_9  and  N_12
REMARK    3  A    between atoms: N_12  and  C_13
REMARK    4  A    between atoms: C_13  and  C_14
REMARK    5  A    between atoms: C_20  and  C_21
REMARK                            x       y       z     vdW  Elec       q    Type
REMARK                         _______ _______ _______ _____ _____    ______ ____
ROOT
ATOM      1  C   UNL     1       2.351   0.064  -0.088  0.00  0.00    +0.000 C 
ATOM      2  C   UNL     1       2.871   0.928   1.073  0.00  0.00    +0.000 C 
ATOM      3  C   UNL     1       4.407   0.941   1.076  0.00  0.00    +0.000 C 
ATOM      4  C   UNL     1       4.920   1.484  -0.264  0.00  0.00    +0.000 C 
ATOM      5  C   UNL     1       4.412   0.604  -1.419  0.00  0.00    +0.000 C 
ATOM      6  C   UNL     1       2.876   0.611  -1.420  0.00  0.00    +0.000 C 
ATOM      7  C   UNL     1       4.915  -0.843  -1.218  0.00  0.00    +0.000 C 
ATOM      8  C   UNL     1       4.394  -1.413   0.133  0.00  0.00    +0.000 C 
ATOM      9  C   UNL     1       4.917  -0.492   1.264  0.00  0.00    +0.000 C 
ATOM     10  C   UNL     1       2.849  -1.369   0.096  0.00  0.00    +0.000 C 
ENDROOT
BRANCH   1  11
ATOM     11  O   UNL     1       0.931   0.048  -0.087  0.00  0.00    +0.000 OA
ATOM     12  H   UNL     1       0.619   0.962  -0.190  0.00  0.00    +0.000 HD
ENDBRANCH   1  11
BRANCH   8  13
ATOM     13  N   UNL     1       4.862  -2.797   0.301  0.00  0.00    +0.000 NA
ATOM     14  H   UNL     1       5.884  -2.837   0.278  0.00  0.00    +0.000 HD
BRANCH  13  15
ATOM     15  C   UNL     1       4.390  -3.426   1.552  0.00  0.00    +0.000 C 
BRANCH  15  16
ATOM     16  C   UNL     1       4.940  -4.842   1.735  0.00  0.00    +0.000 C 
ATOM     17  O   UNL     1       5.780  -5.331   0.979  0.00  0.00    +0.000 OA
ATOM     18  N   UNL     1       4.618  -5.440   2.942  0.00  0.00    +0.000 N 
ATOM     19  C   UNL     1       5.645  -6.139   3.684  0.00  0.00    +0.000 C 
ATOM     20  C   UNL     1       5.029  -6.336   5.059  0.00  0.00    +0.000 C 
ATOM     21  C   UNL     1       3.552  -6.558   4.740  0.00  0.00    +0.000 C 
ATOM     22  C   UNL     1       3.296  -5.566   3.586  0.00  0.00    +0.000 C 
BRANCH  22  23
ATOM     23  C   UNL     1       2.780  -4.288   4.116  0.00  0.00    +0.000 C 
ATOM     24  N   UNL     1       2.389  -3.275   4.518  0.00  0.00    +0.000 NA
ENDBRANCH  22  23
ENDBRANCH  15  16
ENDBRANCH  13  15
ENDBRANCH   8  13
TORSDOF 5
