REMARK  Name = Viloxazine
REMARK  6 active torsions:
REMARK  status: ('A' for Active; 'I' for Inactive)
REMARK    1  A    between atoms: C_1  and  C_2
REMARK    2  A    between atoms: C_2  and  O_3
REMARK    3  A    between atoms: O_3  and  C_4
REMARK    4  A    between atoms: C_9  and  O_10
REMARK    5  A    between atoms: O_10  and  C_11
REMARK    6  A    between atoms: C_11  and  C_12
REMARK                            x       y       z     vdW  Elec       q    Type
REMARK                         _______ _______ _______ _____ _____    ______ ____
ROOT
ATOM      1  C   UNL     1       4.377  -0.766  -1.240  0.00  0.00    +0.000 A 
ATOM      2  C   UNL     1       4.918  -0.621  -2.525  0.00  0.00    +0.000 A 
ATOM      3  C   UNL     1       6.269  -0.899  -2.810  0.00  0.00    +0.000 A 
ATOM      4  C   UNL     1       7.132  -1.291  -1.783  0.00  0.00    +0.000 A 
ATOM      5  C   UNL     1       6.637  -1.433  -0.510  0.00  0.00    +0.000 A 
ATOM      6  C   UNL     1       5.277  -1.220  -0.215  0.00  0.00    +0.000 A 
ENDROOT
BRANCH   1   7
ATOM      7  O   UNL     1       2.982  -0.685  -1.223  0.00  0.00    +0.000 OA
BRANCH   7   9
ATOM      8  C   UNL     1       0.779   0.154  -0.359  0.00  0.00    +0.000 C 
ATOM      9  C   UNL     1       2.293   0.276  -0.406  0.00  0.00    +0.000 C 
ENDBRANCH   7   9
ENDBRANCH   1   7
BRANCH   6  10
ATOM     10  O   UNL     1       5.062  -1.575   1.107  0.00  0.00    +0.000 OA
BRANCH  10  11
ATOM     11  C   UNL     1       3.785  -1.175   1.474  0.00  0.00    +0.000 C 
BRANCH  11  12
ATOM     12  C   UNL     1       3.272  -1.258   2.879  0.00  0.00    +0.000 C 
ATOM     13  C   UNL     1       3.846  -0.078   3.687  0.00  0.00    +0.000 C 
ATOM     14  N   UNL     1       3.548  -0.203   5.116  0.00  0.00    +0.000 NA
ATOM     15  C   UNL     1       3.972  -1.558   5.523  0.00  0.00    +0.000 C 
ATOM     16  C   UNL     1       3.240  -2.655   4.741  0.00  0.00    +0.000 C 
ATOM     17  O   UNL     1       3.562  -2.558   3.364  0.00  0.00    +0.000 OA
ATOM     18  H   UNL     1       2.539  -0.122   5.243  0.00  0.00    +0.000 HD
ENDBRANCH  11  12
ENDBRANCH  10  11
ENDBRANCH   6  10
TORSDOF 5
