REMARK  Name = Viomycin
REMARK  15 active torsions:
REMARK  status: ('A' for Active; 'I' for Inactive)
REMARK    1  A    between atoms: C_2  and  C_10
REMARK    2  A    between atoms: C_4  and  O_5
REMARK    3  A    between atoms: CA_19  and  C_20
REMARK    4  A    between atoms: C_20  and  O_21
REMARK    5  A    between atoms: CA_25  and  CB_26
REMARK    6  A    between atoms: CB_26  and  O_27
REMARK    7  A    between atoms: CA_31  and  N_36
REMARK    8  A    between atoms: C_37  and  C_39
REMARK    9  A    between atoms: C_39  and  C_40
REMARK   10  A    between atoms: C_40  and  N_41
REMARK   11  A    between atoms: C_40  and  C_42
REMARK   12  A    between atoms: C_42  and  C_43
REMARK   13  A    between atoms: C_43  and  C_44
REMARK   14  A    between atoms: C_44  and  N_45
REMARK   15  A    between atoms: C_46  and  N_47
REMARK                            x       y       z     vdW  Elec       q    Type
REMARK                         _______ _______ _______ _____ _____    ______ ____
ROOT
ATOM      1  C   UNL     1       2.408  -0.378   3.779  0.00  0.00    +0.000 C 
ATOM      2  N   UNL     1       3.932  -0.386   3.739  0.00  0.00    +0.000 N 
ATOM      3  C   UNL     1       4.737  -0.379   2.596  0.00  0.00    +0.000 C 
ATOM      4  O   UNL     1       4.356  -0.067   1.467  0.00  0.00    +0.000 OA
ATOM      5  C   UNL     1       6.120  -0.996   2.658  0.00  0.00    +0.000 C 
ATOM      6  N   UNL     1       6.637  -1.659   1.508  0.00  0.00    +0.000 N 
ATOM      7  C   UNL     1       6.964  -3.048   1.578  0.00  0.00    +0.000 C 
ATOM      8  O   UNL     1       7.936  -3.464   2.203  0.00  0.00    +0.000 OA
ATOM      9  CA  UNL     1       5.946  -4.065   0.915  0.00  0.00    +0.000 C 
ATOM     10  N   UNL     1       6.024  -5.544   1.134  0.00  0.00    +0.000 N 
ATOM     11  C   UNL     1       4.889  -6.351   0.852  0.00  0.00    +0.000 C 
ATOM     12  O   UNL     1       4.495  -6.443  -0.317  0.00  0.00    +0.000 OA
ATOM     13  CA  UNL     1       3.957  -6.828   2.095  0.00  0.00    +0.000 C 
ATOM     14  N   UNL     1       2.702  -6.048   2.372  0.00  0.00    +0.000 N 
ATOM     15  C   UNL     1       1.992  -6.070   3.567  0.00  0.00    +0.000 C 
ATOM     16  O   UNL     1       2.356  -6.813   4.478  0.00  0.00    +0.000 OA
ATOM     17  CA  UNL     1       0.733  -5.143   3.713  0.00  0.00    +0.000 C 
ATOM     18  C   UNL     1       1.014  -3.933   4.824  0.00  0.00    +0.000 C 
ATOM     19  N   UNL     1       1.413  -2.579   4.439  0.00  0.00    +0.000 N 
ATOM     20  C   UNL     1       1.943  -1.427   4.966  0.00  0.00    +0.000 C 
ATOM     21  O   UNL     1       2.176  -1.267   6.129  0.00  0.00    +0.000 OA
ATOM     22  C   UNL     1       6.844  -0.663   3.723  0.00  0.00    +0.000 C 
ATOM     23  H   UNL     1       4.343  -0.439   4.665  0.00  0.00    +0.000 HD
ATOM     24  H   UNL     1       6.136  -1.360   0.670  0.00  0.00    +0.000 HD
ATOM     25  H   UNL     1       6.611  -5.802   1.916  0.00  0.00    +0.000 HD
ATOM     26  H   UNL     1       2.403  -5.426   1.624  0.00  0.00    +0.000 HD
ATOM     27  H   UNL     1       0.673  -2.251   3.862  0.00  0.00    +0.000 HD
ENDROOT
BRANCH   1  28
ATOM     28  C   UNL     1       1.763  -0.482   2.313  0.00  0.00    +0.000 C 
ATOM     29  C   UNL     1       2.215  -1.709   1.533  0.00  0.00    +0.000 C 
ATOM     30  C   UNL     1       1.536  -2.939   1.971  0.00  0.00    +0.000 C 
ATOM     31  N   UNL     1       0.172  -2.687   2.236  0.00  0.00    +0.000 N 
ATOM     32  C   UNL     1      -0.422  -1.524   2.533  0.00  0.00    +0.000 C 
ATOM     33  N   UNL     1      -1.253  -1.517   3.518  0.00  0.00    +0.000 NA
ATOM     34  N   UNL     1       0.314  -0.422   2.319  0.00  0.00    +0.000 N 
ATOM     35  H   UNL     1      -0.376  -3.407   1.784  0.00  0.00    +0.000 HD
ATOM     36  H   UNL     1      -1.383  -2.468   3.882  0.00  0.00    +0.000 HD
ATOM     37  H   UNL     1      -0.097   0.203   1.634  0.00  0.00    +0.000 HD
BRANCH  30  38
ATOM     38  O   UNL     1       1.385  -4.035   1.126  0.00  0.00    +0.000 OA
ATOM     39  H   UNL     1       2.027  -3.904   0.421  0.00  0.00    +0.000 HD
ENDBRANCH  30  38
ENDBRANCH   1  28
BRANCH  22  40
ATOM     40  N   UNL     1       8.197  -0.814   3.753  0.00  0.00    +0.000 N 
ATOM     41  C   UNL     1       9.058  -0.406   4.718  0.00  0.00    +0.000 C 
ATOM     42  N   UNL     1       8.526   0.152   5.830  0.00  0.00    +0.000 N 
ATOM     43  O   UNL     1      10.269  -0.525   4.587  0.00  0.00    +0.000 OA
ATOM     44  H   UNL     1       8.649  -1.214   2.932  0.00  0.00    +0.000 HD
ATOM     45  H   UNL     1       7.544   0.252   6.014  0.00  0.00    +0.000 HD
ATOM     46  H   UNL     1       9.164   0.402   6.569  0.00  0.00    +0.000 HD
ENDBRANCH  22  40
BRANCH  17  47
ATOM     47  N   UNL     1      -0.471  -5.888   4.054  0.00  0.00    +0.000 N 
ATOM     48  C   UNL     1      -0.687  -6.100   5.373  0.00  0.00    +0.000 C 
ATOM     49  O   UNL     1       0.091  -5.700   6.233  0.00  0.00    +0.000 OA
ATOM     50  H   UNL     1      -1.047  -6.326   3.338  0.00  0.00    +0.000 HD
BRANCH  48  51
ATOM     51  C   UNL     1      -1.948  -6.782   5.727  0.00  0.00    +0.000 C 
BRANCH  51  52
ATOM     52  C   UNL     1      -2.021  -6.699   7.251  0.00  0.00    +0.000 C 
BRANCH  52  53
ATOM     53  N   UNL     1      -2.189  -5.313   7.726  0.00  0.00    +0.000 NA
ATOM     54  H   UNL     1      -2.995  -4.870   7.297  0.00  0.00    +0.000 HD
ATOM     55  H   UNL     1      -1.360  -4.776   7.443  0.00  0.00    +0.000 HD
ENDBRANCH  52  53
BRANCH  52  56
ATOM     56  C   UNL     1      -3.164  -7.551   7.745  0.00  0.00    +0.000 C 
BRANCH  56  57
ATOM     57  C   UNL     1      -3.210  -7.541   9.266  0.00  0.00    +0.000 C 
BRANCH  57  58
ATOM     58  C   UNL     1      -4.376  -8.377   9.746  0.00  0.00    +0.000 C 
BRANCH  58  59
ATOM     59  N   UNL     1      -4.431  -8.341  11.197  0.00  0.00    +0.000 NA
ATOM     60  H   UNL     1      -3.563  -8.717  11.578  0.00  0.00    +0.000 HD
ATOM     61  H   UNL     1      -5.185  -8.938  11.523  0.00  0.00    +0.000 HD
ENDBRANCH  58  59
ENDBRANCH  57  58
ENDBRANCH  56  57
ENDBRANCH  52  56
ENDBRANCH  51  52
ENDBRANCH  48  51
ENDBRANCH  17  47
BRANCH   9  62
ATOM     62  C   UNL     1       4.655  -3.654   1.534  0.00  0.00    +0.000 C 
BRANCH  62  63
ATOM     63  O   UNL     1       3.580  -4.226   0.833  0.00  0.00    +0.000 OA
ATOM     64  H   UNL     1       3.778  -4.262  -0.121  0.00  0.00    +0.000 HD
ENDBRANCH  62  63
ENDBRANCH   9  62
BRANCH  13  65
ATOM     65  CB  UNL     1       3.506  -8.270   1.810  0.00  0.00    +0.000 C 
BRANCH  65  66
ATOM     66  O   UNL     1       2.764  -8.858   2.881  0.00  0.00    +0.000 OA
ATOM     67  H   UNL     1       2.890  -8.306   3.686  0.00  0.00    +0.000 HD
ENDBRANCH  65  66
ENDBRANCH  13  65
TORSDOF 15
