REMARK  Name = Vismodegib
REMARK  5 active torsions:
REMARK  status: ('A' for Active; 'I' for Inactive)
REMARK    1  A    between atoms: C_1  and  S_2
REMARK    2  A    between atoms: S_2  and  C_5
REMARK    3  A    between atoms: C_9  and  C_12
REMARK    4  A    between atoms: N_14  and  C_15
REMARK    5  A    between atoms: C_20  and  C_22
REMARK                            x       y       z     vdW  Elec       q    Type
REMARK                         _______ _______ _______ _____ _____    ______ ____
ROOT
ATOM      1  C   UNL     1       4.644  -5.682  -1.043  0.00  0.00    +0.000 C 
ATOM      2  O   UNL     1       5.737  -5.759  -1.604  0.00  0.00    +0.000 OA
ATOM      3  N   UNL     1       3.850  -6.793  -0.757  0.00  0.00    +0.000 N 
ATOM      4  H   UNL     1       2.888  -6.648  -0.478  0.00  0.00    +0.000 HD
ENDROOT
BRANCH   1   9
ATOM      5  C   UNL     1       3.317  -1.618  -0.235  0.00  0.00    +0.000 A 
ATOM      6  C   UNL     1       2.518  -2.687   0.163  0.00  0.00    +0.000 A 
ATOM      7  C   UNL     1       2.915  -4.015  -0.071  0.00  0.00    +0.000 A 
ATOM      8 CL   UNL     1       1.803  -5.207   0.507  0.00  0.00    +0.000 Cl
ATOM      9  C   UNL     1       4.123  -4.301  -0.722  0.00  0.00    +0.000 A 
ATOM     10  C   UNL     1       4.929  -3.198  -1.108  0.00  0.00    +0.000 A 
ATOM     11  C   UNL     1       4.534  -1.868  -0.869  0.00  0.00    +0.000 A 
BRANCH   5  13
ATOM     12  C   UNL     1       1.009   0.050   0.046  0.00  0.00    +0.000 C 
ATOM     13  S   UNL     1       2.788   0.060   0.065  0.00  0.00    +0.000 S 
ATOM     14  O   UNL     1       3.217   0.846  -1.081  0.00  0.00    +0.000 OA
ATOM     15  O   UNL     1       3.218   0.388   1.405  0.00  0.00    +0.000 OA
ENDBRANCH   5  13
ENDBRANCH   1   9
BRANCH   3  16
ATOM     16  C   UNL     1       4.249  -8.130  -0.988  0.00  0.00    +0.000 A 
ATOM     17  C   UNL     1       5.566  -8.509  -0.738  0.00  0.00    +0.000 A 
ATOM     18  C   UNL     1       5.983  -9.813  -0.973  0.00  0.00    +0.000 A 
ATOM     19  C   UNL     1       5.087 -10.757  -1.473  0.00  0.00    +0.000 A 
ATOM     20 CL   UNL     1       5.744 -12.329  -1.803  0.00  0.00    +0.000 Cl
ATOM     21  C   UNL     1       3.729 -10.431  -1.691  0.00  0.00    +0.000 A 
ATOM     22  C   UNL     1       3.323  -9.097  -1.425  0.00  0.00    +0.000 A 
BRANCH  21  23
ATOM     23  C   UNL     1       2.762 -11.459  -2.125  0.00  0.00    +0.000 A 
ATOM     24  C   UNL     1       2.554 -12.603  -1.350  0.00  0.00    +0.000 A 
ATOM     25  C   UNL     1       1.737 -13.622  -1.826  0.00  0.00    +0.000 A 
ATOM     26  C   UNL     1       1.121 -13.469  -3.058  0.00  0.00    +0.000 A 
ATOM     27  C   UNL     1       1.346 -12.292  -3.756  0.00  0.00    +0.000 A 
ATOM     28  N   UNL     1       2.142 -11.281  -3.318  0.00  0.00    +0.000 NA
ENDBRANCH  21  23
ENDBRANCH   3  16
TORSDOF 4
