REMARK  Name = Vitamin A
REMARK  11 active torsions:
REMARK  status: ('A' for Active; 'I' for Inactive)
REMARK    1  A    between atoms: C_1  and  C_2
REMARK    2  A    between atoms: C_2  and  C_6
REMARK    3  A    between atoms: C_3  and  C_4
REMARK    4  A    between atoms: C_4  and  O_5
REMARK    5  A    between atoms: C_7  and  C_8
REMARK    6  A    between atoms: C_9  and  C_10
REMARK    7  A    between atoms: C_9  and  C_11
REMARK    8  A    between atoms: C_12  and  C_13
REMARK    9  A    between atoms: C_14  and  C_15
REMARK   10  A    between atoms: C_19  and  C_20
REMARK   11  A    between atoms: C_19  and  C_21
REMARK                            x       y       z     vdW  Elec       q    Type
REMARK                         _______ _______ _______ _____ _____    ______ ____
ROOT
ATOM      1  C   UNL     1       5.337   1.346   2.170  0.00  0.00    +0.000 C 
ATOM      2  C   UNL     1       6.695   1.354   2.159  0.00  0.00    +0.000 C 
ATOM      3  C   UNL     1       7.533   0.707   1.078  0.00  0.00    +0.000 C 
ENDROOT
BRANCH   1   5
ATOM      4  C   UNL     1       3.184   0.676   1.041  0.00  0.00    +0.000 C 
ATOM      5  C   UNL     1       4.525   0.732   1.137  0.00  0.00    +0.000 C 
BRANCH   4   7
ATOM      6  C   UNL     1       0.958   0.083   0.012  0.00  0.00    +0.000 C 
ATOM      7  C   UNL     1       2.465   0.034  -0.074  0.00  0.00    +0.000 C 
ATOM      8  C   UNL     1       3.080  -0.572  -1.115  0.00  0.00    +0.000 C 
BRANCH   8   9
ATOM      9  C   UNL     1       2.383  -1.237  -2.257  0.00  0.00    +0.000 C 
BRANCH   9  10
ATOM     10  O   UNL     1       3.348  -1.769  -3.152  0.00  0.00    +0.000 OA
ATOM     11  H   UNL     1       3.844  -1.016  -3.514  0.00  0.00    +0.000 HD
ENDBRANCH   9  10
ENDBRANCH   8   9
ENDBRANCH   4   7
ENDBRANCH   1   5
BRANCH   2  12
ATOM     12  C   UNL     1       7.443   2.014   3.238  0.00  0.00    +0.000 C 
ATOM     13  C   UNL     1       8.786   2.036   3.378  0.00  0.00    +0.000 C 
BRANCH  13  14
ATOM     14  C   UNL     1       9.499   2.683   4.485  0.00  0.00    +0.000 C 
ATOM     15  C   UNL     1       9.186   2.427   5.780  0.00  0.00    +0.000 C 
ATOM     16  C   UNL     1       8.229   1.355   6.244  0.00  0.00    +0.000 C 
ATOM     17  C   UNL     1       9.778   3.206   6.935  0.00  0.00    +0.000 C 
ATOM     18  C   UNL     1      10.543   4.455   6.522  0.00  0.00    +0.000 C 
ATOM     19  C   UNL     1      11.447   4.133   5.345  0.00  0.00    +0.000 C 
ATOM     20  C   UNL     1      10.639   3.663   4.100  0.00  0.00    +0.000 C 
ATOM     21  C   UNL     1      11.675   3.027   3.142  0.00  0.00    +0.000 C 
ATOM     22  C   UNL     1      10.027   4.898   3.408  0.00  0.00    +0.000 C 
ENDBRANCH  13  14
ENDBRANCH   2  12
TORSDOF 6
