REMARK  Name = Vonoprazan
REMARK  6 active torsions:
REMARK  status: ('A' for Active; 'I' for Inactive)
REMARK    1  A    between atoms: C_1  and  N_2
REMARK    2  A    between atoms: N_2  and  C_3
REMARK    3  A    between atoms: C_3  and  C_4
REMARK    4  A    between atoms: N_6  and  S_16
REMARK    5  A    between atoms: C_7  and  C_9
REMARK    6  A    between atoms: S_16  and  C_19
REMARK                            x       y       z     vdW  Elec       q    Type
REMARK                         _______ _______ _______ _____ _____    ______ ____
ROOT
ATOM      1  C   UNL     1       4.362   0.863  -1.041  0.00  0.00    +0.000 A 
ATOM      2  C   UNL     1       5.223   1.841  -0.566  0.00  0.00    +0.000 A 
ATOM      3  N   UNL     1       6.512   1.398  -0.744  0.00  0.00    +0.000 N 
ATOM      4  C   UNL     1       6.501   0.162  -1.363  0.00  0.00    +0.000 A 
ATOM      5  C   UNL     1       5.175  -0.175  -1.557  0.00  0.00    +0.000 A 
ENDROOT
BRANCH   4   6
ATOM      6  C   UNL     1       7.654  -0.613  -1.791  0.00  0.00    +0.000 A 
ATOM      7  C   UNL     1       8.573  -1.105  -0.861  0.00  0.00    +0.000 A 
ATOM      8  C   UNL     1       9.655  -1.871  -1.285  0.00  0.00    +0.000 A 
ATOM      9  C   UNL     1       9.804  -2.184  -2.636  0.00  0.00    +0.000 A 
ATOM     10  C   UNL     1       8.873  -1.727  -3.568  0.00  0.00    +0.000 A 
ATOM     11  C   UNL     1       7.807  -0.948  -3.141  0.00  0.00    +0.000 A 
ATOM     12  F   UNL     1       6.910  -0.533  -4.051  0.00  0.00    +0.000 F 
ENDBRANCH   4   6
BRANCH   3  13
ATOM     13  S   UNL     1       7.938   2.248  -0.332  0.00  0.00    +0.000 S 
ATOM     14  O   UNL     1       8.571   1.465   0.710  0.00  0.00    +0.000 OA
ATOM     15  O   UNL     1       8.590   2.511  -1.604  0.00  0.00    +0.000 OA
BRANCH  13  16
ATOM     16  C   UNL     1       7.530   3.786   0.403  0.00  0.00    +0.000 A 
ATOM     17  C   UNL     1       6.793   3.862   1.585  0.00  0.00    +0.000 A 
ATOM     18  C   UNL     1       6.631   5.103   2.195  0.00  0.00    +0.000 A 
ATOM     19  C   UNL     1       7.237   6.207   1.615  0.00  0.00    +0.000 A 
ATOM     20  N   UNL     1       7.959   6.154   0.474  0.00  0.00    +0.000 NA
ATOM     21  C   UNL     1       8.099   4.940  -0.108  0.00  0.00    +0.000 A 
ENDBRANCH  13  16
ENDBRANCH   3  13
BRANCH   1  22
ATOM     22  C   UNL     1       2.872   0.865  -1.069  0.00  0.00    +0.000 C 
BRANCH  22  24
ATOM     23  C   UNL     1       0.945   0.045   0.071  0.00  0.00    +0.000 C 
ATOM     24  N   UNL     1       2.400   0.083   0.070  0.00  0.00    +0.000 NA
ATOM     25  H   UNL     1       2.760  -0.869  -0.010  0.00  0.00    +0.000 HD
ENDBRANCH  22  24
ENDBRANCH   1  22
TORSDOF 5
