REMARK  Name = Vorapaxar
REMARK  8 active torsions:
REMARK  status: ('A' for Active; 'I' for Inactive)
REMARK    1  A    between atoms: C_7  and  N_35
REMARK    2  A    between atoms: C_12  and  C_13
REMARK    3  A    between atoms: C_14  and  C_15
REMARK    4  A    between atoms: C_18  and  C_21
REMARK    5  A    between atoms: C_30  and  C_31
REMARK    6  A    between atoms: C_36  and  O_38
REMARK    7  A    between atoms: O_38  and  C_39
REMARK    8  A    between atoms: C_39  and  C_40
REMARK                            x       y       z     vdW  Elec       q    Type
REMARK                         _______ _______ _______ _____ _____    ______ ____
ROOT
ATOM      1  C   UNL     1       2.107   0.205  -0.055  0.00  0.00    +0.000 C 
ATOM      2  C   UNL     1       0.650  -0.241  -0.297  0.00  0.00    +0.000 C 
ATOM      3  C   UNL     1       0.380  -1.728  -0.678  0.00  0.00    +0.000 C 
ATOM      4  C   UNL     1      -0.962  -2.168   0.042  0.00  0.00    +0.000 C 
ATOM      5  C   UNL     1      -1.182  -3.699   0.164  0.00  0.00    +0.000 C 
ATOM      6  C   UNL     1       0.063  -4.440   0.682  0.00  0.00    +0.000 C 
ATOM      7  C   UNL     1       1.231  -4.126  -0.238  0.00  0.00    +0.000 C 
ATOM      8  C   UNL     1       1.453  -2.619  -0.073  0.00  0.00    +0.000 C 
ATOM      9  C   UNL     1       2.923  -2.230   0.023  0.00  0.00    +0.000 C 
ATOM     10  C   UNL     1       3.213  -0.784  -0.395  0.00  0.00    +0.000 C 
ATOM     11  C   UNL     1       4.446  -0.175   0.290  0.00  0.00    +0.000 C 
ATOM     12  C   UNL     1       5.762  -0.494  -0.387  0.00  0.00    +0.000 C 
ATOM     13  O   UNL     1       4.192   1.234   0.341  0.00  0.00    +0.000 OA
ATOM     14  C   UNL     1       2.862   1.514   0.076  0.00  0.00    +0.000 C 
ATOM     15  O   UNL     1       2.383   2.626   0.221  0.00  0.00    +0.000 OA
ENDROOT
BRANCH   5  16
ATOM     16  N   UNL     1      -2.322  -4.008   1.014  0.00  0.00    +0.000 N 
ATOM     17  C   UNL     1      -2.717  -5.293   1.227  0.00  0.00    +0.000 C 
ATOM     18  O   UNL     1      -2.167  -6.285   0.712  0.00  0.00    +0.000 OA
ATOM     19  H   UNL     1      -2.828  -3.275   1.501  0.00  0.00    +0.000 HD
BRANCH  17  20
ATOM     20  O   UNL     1      -3.772  -5.380   2.066  0.00  0.00    +0.000 OA
BRANCH  20  21
ATOM     21  C   UNL     1      -4.175  -6.742   2.287  0.00  0.00    +0.000 C 
ATOM     22  C   UNL     1      -5.422  -6.780   3.144  0.00  0.00    +0.000 C 
ENDBRANCH  20  21
ENDBRANCH  17  20
ENDBRANCH   5  16
BRANCH   9  23
ATOM     23  C   UNL     1       3.211  -2.425   1.506  0.00  0.00    +0.000 C 
ATOM     24  C   UNL     1       2.919  -3.495   2.253  0.00  0.00    +0.000 C 
BRANCH  24  25
ATOM     25  C   UNL     1       3.071  -3.481   3.679  0.00  0.00    +0.000 A 
ATOM     26  C   UNL     1       2.709  -2.404   4.479  0.00  0.00    +0.000 A 
ATOM     27  C   UNL     1       3.057  -2.471   5.811  0.00  0.00    +0.000 A 
ATOM     28  C   UNL     1       3.712  -3.612   6.288  0.00  0.00    +0.000 A 
ATOM     29  C   UNL     1       3.957  -4.656   5.404  0.00  0.00    +0.000 A 
ATOM     30  N   UNL     1       3.641  -4.616   4.110  0.00  0.00    +0.000 NA
BRANCH  28  31
ATOM     31  C   UNL     1       4.188  -3.681   7.652  0.00  0.00    +0.000 A 
ATOM     32  C   UNL     1       3.293  -3.645   8.723  0.00  0.00    +0.000 A 
ATOM     33  C   UNL     1       3.785  -3.653  10.018  0.00  0.00    +0.000 A 
ATOM     34  F   UNL     1       2.927  -3.603  11.044  0.00  0.00    +0.000 F 
ATOM     35  C   UNL     1       5.153  -3.697  10.265  0.00  0.00    +0.000 A 
ATOM     36  C   UNL     1       6.051  -3.748   9.202  0.00  0.00    +0.000 A 
ATOM     37  C   UNL     1       5.569  -3.747   7.898  0.00  0.00    +0.000 A 
ENDBRANCH  28  31
ENDBRANCH  24  25
ENDBRANCH   9  23
TORSDOF 6
