REMARK  Name = Vorinostat
REMARK  9 active torsions:
REMARK  status: ('A' for Active; 'I' for Inactive)
REMARK    1  A    between atoms: O_1  and  N_2
REMARK    2  A    between atoms: C_3  and  C_5
REMARK    3  A    between atoms: C_5  and  C_6
REMARK    4  A    between atoms: C_6  and  C_7
REMARK    5  A    between atoms: C_7  and  C_8
REMARK    6  A    between atoms: C_8  and  C_9
REMARK    7  A    between atoms: C_9  and  C_10
REMARK    8  A    between atoms: C_10  and  C_11
REMARK    9  A    between atoms: N_13  and  C_14
REMARK                            x       y       z     vdW  Elec       q    Type
REMARK                         _______ _______ _______ _____ _____    ______ ____
ROOT
ATOM      1  C   UNL     1       8.754   4.081   1.117  0.00  0.00    +0.000 C 
ENDROOT
BRANCH   1   2
ATOM      2  C   UNL     1       7.233   4.052   1.110  0.00  0.00    +0.000 C 
BRANCH   2   3
ATOM      3  C   UNL     1       6.720   2.662   0.717  0.00  0.00    +0.000 C 
BRANCH   3   4
ATOM      4  C   UNL     1       5.196   2.638   0.710  0.00  0.00    +0.000 C 
BRANCH   4   5
ATOM      5  C   UNL     1       4.628   1.271   0.323  0.00  0.00    +0.000 C 
BRANCH   5   7
ATOM      6  N   UNL     1       2.522   0.108  -0.007  0.00  0.00    +0.000 N 
ATOM      7  C   UNL     1       3.108   1.305   0.333  0.00  0.00    +0.000 C 
ATOM      8  O   UNL     1       2.475   2.323   0.621  0.00  0.00    +0.000 OA
ATOM      9  H   UNL     1       3.027  -0.737  -0.246  0.00  0.00    +0.000 HD
BRANCH   6  10
ATOM     10  O   UNL     1       1.110   0.098  -0.009  0.00  0.00    +0.000 OA
ATOM     11  H   UNL     1       0.869  -0.807  -0.266  0.00  0.00    +0.000 HD
ENDBRANCH   6  10
ENDBRANCH   5   7
ENDBRANCH   4   5
ENDBRANCH   3   4
ENDBRANCH   2   3
ENDBRANCH   1   2
BRANCH   1  12
ATOM     12  C   UNL     1       9.329   5.451   1.506  0.00  0.00    +0.000 C 
BRANCH  12  13
ATOM     13  C   UNL     1      10.848   5.374   1.482  0.00  0.00    +0.000 C 
ATOM     14  O   UNL     1      11.420   4.327   1.176  0.00  0.00    +0.000 OA
ATOM     15  N   UNL     1      11.511   6.532   1.859  0.00  0.00    +0.000 N 
ATOM     16  H   UNL     1      10.998   7.279   2.310  0.00  0.00    +0.000 HD
BRANCH  15  17
ATOM     17  C   UNL     1      12.923   6.626   1.824  0.00  0.00    +0.000 A 
ATOM     18  C   UNL     1      13.616   7.332   2.811  0.00  0.00    +0.000 A 
ATOM     19  C   UNL     1      15.011   7.457   2.731  0.00  0.00    +0.000 A 
ATOM     20  C   UNL     1      15.716   6.860   1.685  0.00  0.00    +0.000 A 
ATOM     21  C   UNL     1      15.028   6.159   0.701  0.00  0.00    +0.000 A 
ATOM     22  C   UNL     1      13.641   6.045   0.773  0.00  0.00    +0.000 A 
ENDBRANCH  15  17
ENDBRANCH  12  13
ENDBRANCH   1  12
TORSDOF 9
