REMARK  Name = Voriconazole
REMARK  7 active torsions:
REMARK  status: ('A' for Active; 'I' for Inactive)
REMARK    1  A    between atoms: C_1  and  C_2
REMARK    2  A    between atoms: C_2  and  C_3
REMARK    3  A    between atoms: C_2  and  C_10
REMARK    4  A    between atoms: C_10  and  O_11
REMARK    5  A    between atoms: C_10  and  C_12
REMARK    6  A    between atoms: C_10  and  C_18
REMARK    7  A    between atoms: C_12  and  N_13
REMARK                            x       y       z     vdW  Elec       q    Type
REMARK                         _______ _______ _______ _____ _____    ______ ____
ROOT
ATOM      1  C   UNL     1       3.022  -1.124  -0.932  0.00  0.00    +0.000 C 
ENDROOT
BRANCH   1   2
ATOM      2  C   UNL     1       4.592  -1.105  -0.956  0.00  0.00    +0.000 A 
ATOM      3  C   UNL     1       5.360  -2.299  -0.978  0.00  0.00    +0.000 A 
ATOM      4  F   UNL     1       4.778  -3.500  -1.070  0.00  0.00    +0.000 F 
ATOM      5  C   UNL     1       6.749  -2.315  -0.892  0.00  0.00    +0.000 A 
ATOM      6  C   UNL     1       7.425  -1.115  -0.846  0.00  0.00    +0.000 A 
ATOM      7  F   UNL     1       8.763  -1.113  -0.797  0.00  0.00    +0.000 F 
ATOM      8  C   UNL     1       6.729   0.087  -0.864  0.00  0.00    +0.000 A 
ATOM      9  C   UNL     1       5.325   0.096  -0.909  0.00  0.00    +0.000 A 
ENDBRANCH   1   2
BRANCH   1  11
ATOM     10  C   UNL     1       1.012  -2.536   0.075  0.00  0.00    +0.000 C 
ATOM     11  C   UNL     1       2.510  -2.416  -0.190  0.00  0.00    +0.000 C 
BRANCH  11  12
ATOM     12  C   UNL     1       3.129  -2.641   1.190  0.00  0.00    +0.000 A 
ATOM     13  N   UNL     1       3.152  -3.942   1.597  0.00  0.00    +0.000 NA
ATOM     14  C   UNL     1       3.580  -4.173   2.848  0.00  0.00    +0.000 A 
ATOM     15  N   UNL     1       3.992  -3.254   3.732  0.00  0.00    +0.000 NA
ATOM     16  C   UNL     1       3.971  -1.983   3.285  0.00  0.00    +0.000 A 
ATOM     17  C   UNL     1       3.558  -1.631   2.033  0.00  0.00    +0.000 A 
ATOM     18  F   UNL     1       3.625  -0.331   1.709  0.00  0.00    +0.000 F 
ENDBRANCH  11  12
ENDBRANCH   1  11
BRANCH   1  19
ATOM     19  O   UNL     1       2.452  -0.015  -0.214  0.00  0.00    +0.000 OA
ATOM     20  H   UNL     1       2.951   0.801  -0.346  0.00  0.00    +0.000 HD
ENDBRANCH   1  19
BRANCH   1  21
ATOM     21  C   UNL     1       2.519  -0.936  -2.397  0.00  0.00    +0.000 C 
BRANCH  21  22
ATOM     22  N   UNL     1       1.079  -0.848  -2.573  0.00  0.00    +0.000 N 
ATOM     23  C   UNL     1       0.213  -1.855  -2.879  0.00  0.00    +0.000 A 
ATOM     24  N   UNL     1      -1.022  -1.444  -2.694  0.00  0.00    +0.000 NA
ATOM     25  C   UNL     1      -0.861  -0.128  -2.373  0.00  0.00    +0.000 A 
ATOM     26  N   UNL     1       0.406   0.300  -2.349  0.00  0.00    +0.000 NA
ENDBRANCH  21  22
ENDBRANCH   1  21
TORSDOF 6
