REMARK  Name = Vortioxetine
REMARK  5 active torsions:
REMARK  status: ('A' for Active; 'I' for Inactive)
REMARK    1  A    between atoms: C_1  and  C_2
REMARK    2  A    between atoms: C_5  and  S_6
REMARK    3  A    between atoms: S_6  and  C_7
REMARK    4  A    between atoms: C_12  and  N_13
REMARK    5  A    between atoms: C_19  and  C_20
REMARK                            x       y       z     vdW  Elec       q    Type
REMARK                         _______ _______ _______ _____ _____    ______ ____
ROOT
ATOM      1  C   UNL     1      -2.364  -3.659  -0.033  0.00  0.00    +0.000 A 
ATOM      2  C   UNL     1      -2.862  -4.554  -1.000  0.00  0.00    +0.000 A 
ATOM      3  C   UNL     1      -2.697  -5.925  -0.882  0.00  0.00    +0.000 A 
ATOM      4  C   UNL     1      -1.975  -6.417   0.202  0.00  0.00    +0.000 A 
ATOM      5  C   UNL     1      -1.457  -5.536   1.162  0.00  0.00    +0.000 A 
ATOM      6  C   UNL     1      -1.652  -4.139   1.105  0.00  0.00    +0.000 A 
ENDROOT
BRANCH   6   7
ATOM      7  N   UNL     1      -1.155  -3.344   2.122  0.00  0.00    +0.000 N 
ATOM      8  C   UNL     1       0.272  -3.301   2.475  0.00  0.00    +0.000 C 
ATOM      9  C   UNL     1       0.742  -1.827   2.531  0.00  0.00    +0.000 C 
ATOM     10  N   UNL     1      -0.067  -0.848   3.282  0.00  0.00    +0.000 NA
ATOM     11  C   UNL     1      -1.496  -1.021   2.929  0.00  0.00    +0.000 C 
ATOM     12  C   UNL     1      -2.003  -2.477   2.952  0.00  0.00    +0.000 C 
ATOM     13  H   UNL     1       0.202   0.075   2.924  0.00  0.00    +0.000 HD
ENDBRANCH   6   7
BRANCH   1  14
ATOM     14  S   UNL     1      -2.764  -1.961  -0.419  0.00  0.00    +0.000 S 
BRANCH  14  19
ATOM     15  C   UNL     1       2.513   1.101  -0.066  0.00  0.00    +0.000 C 
ATOM     16  C   UNL     1       1.219   0.380  -0.307  0.00  0.00    +0.000 A 
ATOM     17  C   UNL     1       1.217  -0.990  -0.581  0.00  0.00    +0.000 A 
ATOM     18  C   UNL     1       0.007  -1.695  -0.686  0.00  0.00    +0.000 A 
ATOM     19  C   UNL     1      -1.227  -1.047  -0.524  0.00  0.00    +0.000 A 
ATOM     20  C   UNL     1      -1.236   0.354  -0.313  0.00  0.00    +0.000 A 
ATOM     21  C   UNL     1      -2.507   1.146  -0.101  0.00  0.00    +0.000 C 
ATOM     22  C   UNL     1      -0.009   1.049  -0.209  0.00  0.00    +0.000 A 
ENDBRANCH  14  19
ENDBRANCH   1  14
TORSDOF 3
