REMARK  Name = Voxelotor
REMARK  9 active torsions:
REMARK  status: ('A' for Active; 'I' for Inactive)
REMARK    1  A    between atoms: C_1  and  C_2
REMARK    2  A    between atoms: C_2  and  C_3
REMARK    3  A    between atoms: C_2  and  N_4
REMARK    4  A    between atoms: C_8  and  C_9
REMARK    5  A    between atoms: C_10  and  C_11
REMARK    6  A    between atoms: C_11  and  O_12
REMARK    7  A    between atoms: O_12  and  C_13
REMARK    8  A    between atoms: C_17  and  O_18
REMARK    9  A    between atoms: C_19  and  C_20
REMARK                            x       y       z     vdW  Elec       q    Type
REMARK                         _______ _______ _______ _____ _____    ______ ____
ROOT
ATOM      1  C   UNL     1       3.185  -2.407   1.737  0.00  0.00    +0.000 A 
ATOM      2  C   UNL     1       3.954  -2.903   0.674  0.00  0.00    +0.000 A 
ATOM      3  C   UNL     1       3.779  -4.232   0.291  0.00  0.00    +0.000 A 
ATOM      4  C   UNL     1       2.903  -5.034   1.001  0.00  0.00    +0.000 A 
ATOM      5  C   UNL     1       2.223  -4.473   2.069  0.00  0.00    +0.000 A 
ATOM      6  N   UNL     1       2.334  -3.180   2.447  0.00  0.00    +0.000 NA
ENDROOT
BRANCH   1  11
ATOM      7  N   UNL     1       2.856   0.087   1.443  0.00  0.00    +0.000 N 
ATOM      8  N   UNL     1       3.004   1.258   2.110  0.00  0.00    +0.000 NA
ATOM      9  C   UNL     1       3.508   0.893   3.290  0.00  0.00    +0.000 A 
ATOM     10  C   UNL     1       3.632  -0.500   3.411  0.00  0.00    +0.000 A 
ATOM     11  C   UNL     1       3.232  -1.016   2.191  0.00  0.00    +0.000 A 
BRANCH   7  13
ATOM     12  C   UNL     1       0.787   0.061   0.095  0.00  0.00    +0.000 C 
ATOM     13  C   UNL     1       2.303   0.105   0.091  0.00  0.00    +0.000 C 
ATOM     14  C   UNL     1       2.816   1.259  -0.774  0.00  0.00    +0.000 C 
ENDBRANCH   7  13
ENDBRANCH   1  11
BRANCH   2  15
ATOM     15  C   UNL     1       4.972  -2.034   0.005  0.00  0.00    +0.000 C 
BRANCH  15  16
ATOM     16  O   UNL     1       5.659  -2.637  -1.073  0.00  0.00    +0.000 OA
BRANCH  16  17
ATOM     17  C   UNL     1       6.276  -1.783  -1.954  0.00  0.00    +0.000 A 
ATOM     18  C   UNL     1       6.708  -2.513  -3.078  0.00  0.00    +0.000 A 
ATOM     19  C   UNL     1       7.369  -1.899  -4.135  0.00  0.00    +0.000 A 
ATOM     20  C   UNL     1       7.585  -0.529  -4.104  0.00  0.00    +0.000 A 
ATOM     21  C   UNL     1       7.152   0.214  -3.007  0.00  0.00    +0.000 A 
ATOM     22  C   UNL     1       6.519  -0.390  -1.902  0.00  0.00    +0.000 A 
BRANCH  21  23
ATOM     23  O   UNL     1       7.372   1.568  -3.003  0.00  0.00    +0.000 OA
ATOM     24  H   UNL     1       7.853   1.834  -3.804  0.00  0.00    +0.000 HD
ENDBRANCH  21  23
BRANCH  22  25
ATOM     25  C   UNL     1       6.240   0.578  -0.792  0.00  0.00    +0.000 C 
ATOM     26  O   UNL     1       5.904   0.311   0.356  0.00  0.00    +0.000 OA
ENDBRANCH  22  25
ENDBRANCH  16  17
ENDBRANCH  15  16
ENDBRANCH   2  15
TORSDOF 7
