REMARK  Name = Warfarin
REMARK  6 active torsions:
REMARK  status: ('A' for Active; 'I' for Inactive)
REMARK    1  A    between atoms: C_1  and  C_2
REMARK    2  A    between atoms: C_2  and  C_4
REMARK    3  A    between atoms: C_4  and  C_5
REMARK    4  A    between atoms: C_5  and  C_6
REMARK    5  A    between atoms: C_5  and  C_12
REMARK    6  A    between atoms: C_13  and  O_14
REMARK                            x       y       z     vdW  Elec       q    Type
REMARK                         _______ _______ _______ _____ _____    ______ ____
ROOT
ATOM      1  C   UNL     1       5.872   0.750  -2.217  0.00  0.00    +0.000 A 
ATOM      2  C   UNL     1       7.127   1.175  -1.993  0.00  0.00    +0.000 A 
ATOM      3  C   UNL     1       7.891   1.671  -3.139  0.00  0.00    +0.000 A 
ATOM      4  C   UNL     1       8.388   0.648  -3.927  0.00  0.00    +0.000 A 
ATOM      5  O   UNL     1       6.898   0.081  -4.366  0.00  0.00    +0.000 OA
ATOM      6  C   UNL     1       5.669   0.456  -3.675  0.00  0.00    +0.000 A 
ATOM      7  O   UNL     1       4.585   0.520  -4.200  0.00  0.00    +0.000 OA
ATOM      8  C   UNL     1       9.168   0.975  -5.063  0.00  0.00    +0.000 A 
ATOM      9  C   UNL     1       8.978   2.210  -5.684  0.00  0.00    +0.000 A 
ATOM     10  C   UNL     1       8.019   3.063  -5.156  0.00  0.00    +0.000 A 
ATOM     11  C   UNL     1       7.482   2.792  -3.887  0.00  0.00    +0.000 A 
ENDROOT
BRANCH   2  12
ATOM     12  O   UNL     1       7.868   0.865  -0.876  0.00  0.00    +0.000 OA
ATOM     13  H   UNL     1       7.410   0.152  -0.394  0.00  0.00    +0.000 HD
ENDBRANCH   2  12
BRANCH   1  14
ATOM     14  C   UNL     1       4.869   0.321  -1.143  0.00  0.00    +0.000 C 
BRANCH  14  15
ATOM     15  C   UNL     1       5.162  -1.124  -0.791  0.00  0.00    +0.000 A 
ATOM     16  C   UNL     1       4.760  -2.145  -1.658  0.00  0.00    +0.000 A 
ATOM     17  C   UNL     1       4.894  -3.467  -1.268  0.00  0.00    +0.000 A 
ATOM     18  C   UNL     1       5.530  -3.774  -0.067  0.00  0.00    +0.000 A 
ATOM     19  C   UNL     1       5.979  -2.763   0.779  0.00  0.00    +0.000 A 
ATOM     20  C   UNL     1       5.772  -1.437   0.432  0.00  0.00    +0.000 A 
ENDBRANCH  14  15
BRANCH  14  21
ATOM     21  C   UNL     1       3.321   0.489  -1.330  0.00  0.00    +0.000 C 
BRANCH  21  23
ATOM     22  C   UNL     1       1.026   0.023  -0.149  0.00  0.00    +0.000 C 
ATOM     23  C   UNL     1       2.532   0.054  -0.071  0.00  0.00    +0.000 C 
ATOM     24  O   UNL     1       3.075  -0.219   1.001  0.00  0.00    +0.000 OA
ENDBRANCH  21  23
ENDBRANCH  14  21
ENDBRANCH   1  14
TORSDOF 5
