REMARK  Name = Xamoterol
REMARK  10 active torsions:
REMARK  status: ('A' for Active; 'I' for Inactive)
REMARK    1  A    between atoms: O_1  and  C_2
REMARK    2  A    between atoms: C_2  and  C_3
REMARK    3  A    between atoms: C_2  and  C_16
REMARK    4  A    between atoms: C_3  and  N_4
REMARK    5  A    between atoms: N_4  and  C_5
REMARK    6  A    between atoms: C_5  and  C_6
REMARK    7  A    between atoms: C_6  and  N_7
REMARK    8  A    between atoms: C_16  and  O_17
REMARK    9  A    between atoms: O_17  and  C_18
REMARK   10  A    between atoms: C_21  and  O_22
REMARK                            x       y       z     vdW  Elec       q    Type
REMARK                         _______ _______ _______ _____ _____    ______ ____
ROOT
ATOM      1  C   UNL     1       2.853   0.836  -1.170  0.00  0.00    +0.000 C 
ENDROOT
BRANCH   1   2
ATOM      2  N   UNL     1       2.357   0.258  -2.434  0.00  0.00    +0.000 NA
ATOM      3  H   UNL     1       1.339   0.304  -2.447  0.00  0.00    +0.000 HD
BRANCH   2   4
ATOM      4  C   UNL     1       2.873   1.018  -3.585  0.00  0.00    +0.000 C 
BRANCH   4   5
ATOM      5  C   UNL     1       2.408   0.408  -4.922  0.00  0.00    +0.000 C 
BRANCH   5   6
ATOM      6  N   UNL     1       2.966   1.066  -6.106  0.00  0.00    +0.000 N 
ATOM      7  C   UNL     1       2.487   0.760  -7.360  0.00  0.00    +0.000 C 
ATOM      8  O   UNL     1       1.625  -0.099  -7.545  0.00  0.00    +0.000 OA
ATOM      9  N   UNL     1       2.961   1.560  -8.375  0.00  0.00    +0.000 N 
ATOM     10  C   UNL     1       4.336   2.031  -8.535  0.00  0.00    +0.000 C 
ATOM     11  C   UNL     1       4.336   3.551  -8.715  0.00  0.00    +0.000 C 
ATOM     12  O   UNL     1       3.486   3.947  -9.808  0.00  0.00    +0.000 OA
ATOM     13  C   UNL     1       2.135   3.486  -9.603  0.00  0.00    +0.000 C 
ATOM     14  C   UNL     1       2.091   1.953  -9.486  0.00  0.00    +0.000 C 
ATOM     15  H   UNL     1       3.383   1.978  -5.993  0.00  0.00    +0.000 HD
ENDBRANCH   5   6
ENDBRANCH   4   5
ENDBRANCH   2   4
ENDBRANCH   1   2
BRANCH   1  16
ATOM     16  C   UNL     1       2.354   0.035   0.051  0.00  0.00    +0.000 C 
BRANCH  16  17
ATOM     17  O   UNL     1       0.919   0.041   0.076  0.00  0.00    +0.000 OA
ATOM     18  H   UNL     1       0.635  -0.438  -0.721  0.00  0.00    +0.000 HD
ENDBRANCH  16  17
BRANCH  16  19
ATOM     19  C   UNL     1       2.858   0.648   1.362  0.00  0.00    +0.000 C 
BRANCH  19  20
ATOM     20  O   UNL     1       4.286   0.680   1.404  0.00  0.00    +0.000 OA
BRANCH  20  21
ATOM     21  C   UNL     1       4.929   1.885   1.378  0.00  0.00    +0.000 A 
ATOM     22  C   UNL     1       6.328   1.810   1.350  0.00  0.00    +0.000 A 
ATOM     23  C   UNL     1       7.108   2.972   1.317  0.00  0.00    +0.000 A 
ATOM     24  C   UNL     1       6.480   4.212   1.311  0.00  0.00    +0.000 A 
ATOM     25  C   UNL     1       5.098   4.301   1.340  0.00  0.00    +0.000 A 
ATOM     26  C   UNL     1       4.324   3.141   1.372  0.00  0.00    +0.000 A 
BRANCH  24  27
ATOM     27  O   UNL     1       7.178   5.381   1.275  0.00  0.00    +0.000 OA
ATOM     28  H   UNL     1       8.127   5.181   1.265  0.00  0.00    +0.000 HD
ENDBRANCH  24  27
ENDBRANCH  20  21
ENDBRANCH  19  20
ENDBRANCH  16  19
ENDBRANCH   1  16
TORSDOF 10
