REMARK  Name = Xanthinol
REMARK  11 active torsions:
REMARK  status: ('A' for Active; 'I' for Inactive)
REMARK    1  A    between atoms: C_1  and  N_2
REMARK    2  A    between atoms: N_2  and  C_3
REMARK    3  A    between atoms: N_2  and  C_6
REMARK    4  A    between atoms: C_3  and  C_4
REMARK    5  A    between atoms: C_4  and  O_5
REMARK    6  A    between atoms: C_6  and  C_7
REMARK    7  A    between atoms: C_7  and  O_8
REMARK    8  A    between atoms: C_7  and  C_9
REMARK    9  A    between atoms: C_9  and  N_10
REMARK   10  A    between atoms: N_17  and  C_18
REMARK   11  A    between atoms: N_21  and  C_22
REMARK                            x       y       z     vdW  Elec       q    Type
REMARK                         _______ _______ _______ _____ _____    ______ ____
ROOT
ATOM      1  N   UNL     1       6.552  -1.041  -2.696  0.00  0.00    +0.000 N 
ATOM      2  C   UNL     1       7.383  -2.007  -2.181  0.00  0.00    +0.000 A 
ATOM      3  N   UNL     1       8.654  -1.684  -2.327  0.00  0.00    +0.000 NA
ATOM      4  C   UNL     1       8.624  -0.458  -2.921  0.00  0.00    +0.000 A 
ATOM      5  C   UNL     1       7.348  -0.034  -3.150  0.00  0.00    +0.000 A 
ATOM      6  C   UNL     1       7.033   1.216  -3.737  0.00  0.00    +0.000 A 
ATOM      7  O   UNL     1       5.874   1.600  -3.907  0.00  0.00    +0.000 OA
ATOM      8  N   UNL     1       8.161   1.944  -4.099  0.00  0.00    +0.000 N 
ATOM      9  C   UNL     1       7.972   3.224  -4.749  0.00  0.00    +0.000 C 
ATOM     10  C   UNL     1       9.493   1.543  -3.892  0.00  0.00    +0.000 A 
ATOM     11  O   UNL     1      10.429   2.264  -4.251  0.00  0.00    +0.000 OA
ATOM     12  N   UNL     1       9.706   0.310  -3.279  0.00  0.00    +0.000 N 
ATOM     13  C   UNL     1      11.061  -0.150  -3.046  0.00  0.00    +0.000 C 
ENDROOT
BRANCH   1  14
ATOM     14  C   UNL     1       5.098  -1.049  -2.655  0.00  0.00    +0.000 C 
BRANCH  14  15
ATOM     15  C   UNL     1       4.606  -0.514  -1.315  0.00  0.00    +0.000 C 
BRANCH  15  16
ATOM     16  O   UNL     1       5.171  -1.392  -0.328  0.00  0.00    +0.000 OA
ATOM     17  H   UNL     1       4.668  -2.222  -0.327  0.00  0.00    +0.000 HD
ENDBRANCH  15  16
BRANCH  15  18
ATOM     18  C   UNL     1       3.058  -0.493  -1.255  0.00  0.00    +0.000 C 
BRANCH  18  20
ATOM     19  C   UNL     1       1.036   0.080  -0.071  0.00  0.00    +0.000 C 
ATOM     20  N   UNL     1       2.498   0.052   0.004  0.00  0.00    +0.000 NA
BRANCH  20  21
ATOM     21  C   UNL     1       2.946  -0.713   1.179  0.00  0.00    +0.000 C 
BRANCH  21  22
ATOM     22  C   UNL     1       2.474  -0.181   2.529  0.00  0.00    +0.000 C 
BRANCH  22  23
ATOM     23  O   UNL     1       2.995  -0.996   3.576  0.00  0.00    +0.000 OA
ATOM     24  H   UNL     1       2.680  -1.902   3.420  0.00  0.00    +0.000 HD
ENDBRANCH  22  23
ENDBRANCH  21  22
ENDBRANCH  20  21
ENDBRANCH  18  20
ENDBRANCH  15  18
ENDBRANCH  14  15
ENDBRANCH   1  14
TORSDOF 8
