REMARK  Name = Ximelagatran
REMARK  13 active torsions:
REMARK  status: ('A' for Active; 'I' for Inactive)
REMARK    1  A    between atoms: C_1  and  C_2
REMARK    2  A    between atoms: C_2  and  O_3
REMARK    3  A    between atoms: O_3  and  C_4
REMARK    4  A    between atoms: C_4  and  C_6
REMARK    5  A    between atoms: C_6  and  N_7
REMARK    6  A    between atoms: N_7  and  C_8
REMARK    7  A    between atoms: C_8  and  C_9
REMARK    8  A    between atoms: C_8  and  C_29
REMARK    9  A    between atoms: C_14  and  C_15
REMARK   10  A    between atoms: N_17  and  C_18
REMARK   11  A    between atoms: C_18  and  C_19
REMARK   12  A    between atoms: C_22  and  C_25
REMARK   13  A    between atoms: N_27  and  O_28
REMARK                            x       y       z     vdW  Elec       q    Type
REMARK                         _______ _______ _______ _____ _____    ______ ____
ROOT
ATOM      1  C   UNL     1       6.117  -3.734  -3.678  0.00  0.00    +0.000 C 
ATOM      2  O   UNL     1       6.808  -3.873  -4.694  0.00  0.00    +0.000 OA
ATOM      3  N   UNL     1       4.699  -3.894  -3.735  0.00  0.00    +0.000 N 
ATOM      4  C   UNL     1       3.934  -4.522  -4.821  0.00  0.00    +0.000 C 
ATOM      5  C   UNL     1       2.915  -3.392  -4.703  0.00  0.00    +0.000 C 
ATOM      6  C   UNL     1       3.448  -3.114  -3.291  0.00  0.00    +0.000 C 
ENDROOT
BRANCH   6   7
ATOM      7  C   UNL     1       2.631  -3.730  -1.955  0.00  0.00    +0.000 C 
ATOM      8  O   UNL     1       1.811  -4.646  -1.992  0.00  0.00    +0.000 OA
ATOM      9  N   UNL     1       2.932  -3.107  -0.734  0.00  0.00    +0.000 N 
ATOM     10  H   UNL     1       3.171  -2.144  -0.819  0.00  0.00    +0.000 HD
BRANCH   9  11
ATOM     11  C   UNL     1       2.670  -3.398   0.680  0.00  0.00    +0.000 C 
BRANCH  11  12
ATOM     12  C   UNL     1       3.531  -2.645   1.753  0.00  0.00    +0.000 A 
ATOM     13  C   UNL     1       4.594  -1.758   1.556  0.00  0.00    +0.000 A 
ATOM     14  C   UNL     1       5.357  -1.076   2.515  0.00  0.00    +0.000 A 
ATOM     15  C   UNL     1       5.056  -1.263   3.833  0.00  0.00    +0.000 A 
ATOM     16  C   UNL     1       4.020  -2.171   4.121  0.00  0.00    +0.000 A 
ATOM     17  C   UNL     1       3.269  -2.835   3.104  0.00  0.00    +0.000 A 
BRANCH  15  18
ATOM     18  C   UNL     1       5.784  -0.476   4.882  0.00  0.00    +0.000 C 
ATOM     19  N   UNL     1       6.755   0.437   4.540  0.00  0.00    +0.000 N 
ATOM     20  N   UNL     1       5.437  -0.697   6.117  0.00  0.00    +0.000 NA
ATOM     21  H   UNL     1       6.995   0.717   3.602  0.00  0.00    +0.000 HD
ATOM     22  H   UNL     1       7.160   0.972   5.300  0.00  0.00    +0.000 HD
BRANCH  20  23
ATOM     23  O   UNL     1       6.164   0.104   7.005  0.00  0.00    +0.000 OA
ATOM     24  H   UNL     1       5.803  -0.189   7.862  0.00  0.00    +0.000 HD
ENDBRANCH  20  23
ENDBRANCH  15  18
ENDBRANCH  11  12
ENDBRANCH   9  11
ENDBRANCH   6   7
BRANCH   1  25
ATOM     25  C   UNL     1       6.841  -3.622  -2.224  0.00  0.00    +0.000 C 
BRANCH  25  26
ATOM     26  C   UNL     1       8.405  -3.719  -2.196  0.00  0.00    +0.000 C 
ATOM     27  C   UNL     1       9.011  -2.908  -1.001  0.00  0.00    +0.000 C 
ATOM     28  C   UNL     1      10.506  -2.973  -0.889  0.00  0.00    +0.000 C 
ATOM     29  C   UNL     1      10.940  -4.417  -0.777  0.00  0.00    +0.000 C 
ATOM     30  C   UNL     1      10.419  -5.233  -1.959  0.00  0.00    +0.000 C 
ATOM     31  C   UNL     1       8.893  -5.173  -2.084  0.00  0.00    +0.000 C 
ENDBRANCH  25  26
BRANCH  25  32
ATOM     32  N   UNL     1       6.623  -2.298  -1.539  0.00  0.00    +0.000 NA
ATOM     33  H   UNL     1       6.837  -2.453  -0.548  0.00  0.00    +0.000 HD
BRANCH  32  34
ATOM     34  C   UNL     1       5.250  -1.958  -1.613  0.00  0.00    +0.000 C 
BRANCH  34  35
ATOM     35  C   UNL     1       4.704  -0.578  -1.185  0.00  0.00    +0.000 C 
ATOM     36  O   UNL     1       5.398   0.379  -0.824  0.00  0.00    +0.000 OA
BRANCH  35  37
ATOM     37  O   UNL     1       3.315  -0.640  -1.032  0.00  0.00    +0.000 OA
BRANCH  37  39
ATOM     38  C   UNL     1       1.108   0.092  -0.045  0.00  0.00    +0.000 C 
ATOM     39  C   UNL     1       2.637   0.279  -0.115  0.00  0.00    +0.000 C 
ENDBRANCH  37  39
ENDBRANCH  35  37
ENDBRANCH  34  35
ENDBRANCH  32  34
ENDBRANCH  25  32
ENDBRANCH   1  25
TORSDOF 12
