REMARK  Name = Xylometazoline
REMARK  8 active torsions:
REMARK  status: ('A' for Active; 'I' for Inactive)
REMARK    1  A    between atoms: C_1  and  C_2
REMARK    2  A    between atoms: C_4  and  C_15
REMARK    3  A    between atoms: C_6  and  C_7
REMARK    4  A    between atoms: C_8  and  C_9
REMARK    5  A    between atoms: C_9  and  C_10
REMARK    6  A    between atoms: C_15  and  C_16
REMARK    7  A    between atoms: C_15  and  C_17
REMARK    8  A    between atoms: C_15  and  C_18
REMARK                            x       y       z     vdW  Elec       q    Type
REMARK                         _______ _______ _______ _____ _____    ______ ____
ROOT
ATOM      1  C   UNL     1       2.265   1.368  -0.136  0.00  0.00    +0.000 C 
ATOM      2  C   UNL     1       1.146   0.391  -0.072  0.00  0.00    +0.000 A 
ATOM      3  C   UNL     1      -0.107   1.009  -0.041  0.00  0.00    +0.000 A 
ATOM      4  C   UNL     1      -1.286   0.284  -0.004  0.00  0.00    +0.000 A 
ATOM      5  C   UNL     1      -1.172  -1.108   0.005  0.00  0.00    +0.000 A 
ATOM      6  C   UNL     1       0.071  -1.766   0.010  0.00  0.00    +0.000 A 
ATOM      7  C   UNL     1       0.038  -3.275   0.003  0.00  0.00    +0.000 C 
ATOM      8  C   UNL     1       1.275  -1.016   0.003  0.00  0.00    +0.000 A 
ENDROOT
BRANCH   4   9
ATOM      9  C   UNL     1      -2.616   1.029  -0.004  0.00  0.00    +0.000 C 
ATOM     10  C   UNL     1      -2.703   1.948   1.234  0.00  0.00    +0.000 C 
ATOM     11  C   UNL     1      -2.720   1.887  -1.283  0.00  0.00    +0.000 C 
ATOM     12  C   UNL     1      -3.806   0.058   0.030  0.00  0.00    +0.000 C 
ENDBRANCH   4   9
BRANCH   8  13
ATOM     13  C   UNL     1       2.598  -1.789   0.068  0.00  0.00    +0.000 C 
BRANCH  13  14
ATOM     14  C   UNL     1       3.899  -1.008   0.108  0.00  0.00    +0.000 C 
ATOM     15  N   UNL     1       4.675  -0.925  -0.941  0.00  0.00    +0.000 NA
ATOM     16  C   UNL     1       5.743   0.041  -0.529  0.00  0.00    +0.000 C 
ATOM     17  C   UNL     1       5.192   0.761   0.699  0.00  0.00    +0.000 C 
ATOM     18  N   UNL     1       4.306  -0.272   1.209  0.00  0.00    +0.000 N 
ATOM     19  H   UNL     1       3.604  -0.025   1.894  0.00  0.00    +0.000 HD
ENDBRANCH  13  14
ENDBRANCH   8  13
TORSDOF 3
