REMARK  Name = Xylose
REMARK  8 active torsions:
REMARK  status: ('A' for Active; 'I' for Inactive)
REMARK    1  A    between atoms: O_1  and  C_2
REMARK    2  A    between atoms: C_2  and  C_3
REMARK    3  A    between atoms: C_3  and  O_4
REMARK    4  A    between atoms: C_3  and  C_5
REMARK    5  A    between atoms: C_5  and  O_6
REMARK    6  A    between atoms: C_5  and  C_7
REMARK    7  A    between atoms: C_7  and  O_8
REMARK    8  A    between atoms: C_7  and  C_9
REMARK                            x       y       z     vdW  Elec       q    Type
REMARK                         _______ _______ _______ _____ _____    ______ ____
ROOT
ATOM      1  C   UNL     1       4.508   1.241   0.791  0.00  0.00    +0.000 C 
ENDROOT
BRANCH   1   2
ATOM      2  O   UNL     1       3.071   1.243   0.851  0.00  0.00    +0.000 OA
ATOM      3  H   UNL     1       2.747   2.103   0.533  0.00  0.00    +0.000 HD
ENDBRANCH   1   2
BRANCH   1   4
ATOM      4  C   UNL     1       4.987   1.342  -0.673  0.00  0.00    +0.000 C 
BRANCH   4   5
ATOM      5  O   UNL     1       6.331   0.855  -0.763  0.00  0.00    +0.000 OA
ATOM      6  H   UNL     1       6.266  -0.118  -0.653  0.00  0.00    +0.000 HD
ENDBRANCH   4   5
BRANCH   4   7
ATOM      7  C   UNL     1       4.115   0.536  -1.635  0.00  0.00    +0.000 C 
BRANCH   7   8
ATOM      8  O   UNL     1       4.186  -0.843  -1.275  0.00  0.00    +0.000 OA
ATOM      9  H   UNL     1       3.508  -1.301  -1.803  0.00  0.00    +0.000 HD
ENDBRANCH   7   8
ENDBRANCH   4   7
ENDBRANCH   1   4
BRANCH   1  10
ATOM     10  C   UNL     1       5.057   2.395   1.654  0.00  0.00    +0.000 C 
BRANCH  10  11
ATOM     11  O   UNL     1       4.539   2.298   2.984  0.00  0.00    +0.000 OA
ATOM     12  H   UNL     1       4.821   1.444   3.355  0.00  0.00    +0.000 HD
ENDBRANCH  10  11
BRANCH  10  13
ATOM     13  C   UNL     1       6.578   2.461   1.694  0.00  0.00    +0.000 C 
ATOM     14  O   UNL     1       7.206   3.333   2.300  0.00  0.00    +0.000 OA
ENDBRANCH  10  13
ENDBRANCH   1  10
TORSDOF 8
