REMARK  Name = Yohimbine
REMARK  4 active torsions:
REMARK  status: ('A' for Active; 'I' for Inactive)
REMARK    1  A    between atoms: C_5  and  O_6
REMARK    2  A    between atoms: C_7  and  C_8
REMARK    3  A    between atoms: C_8  and  O_10
REMARK    4  A    between atoms: O_10  and  C_11
REMARK                            x       y       z     vdW  Elec       q    Type
REMARK                         _______ _______ _______ _____ _____    ______ ____
ROOT
ATOM      1  C   UNL     1       1.863  -0.212  -0.063  0.00  0.00    +0.000 C 
ATOM      2  C   UNL     1       2.192  -1.047   1.133  0.00  0.00    +0.000 C 
ATOM      3  C   UNL     1       3.654  -1.534   1.108  0.00  0.00    +0.000 C 
ATOM      4  C   UNL     1       4.173  -0.536   2.000  0.00  0.00    +0.000 C 
ATOM      5  C   UNL     1       4.011   0.851   0.819  0.00  0.00    +0.000 C 
ATOM      6  C   UNL     1       2.569   1.151   0.084  0.00  0.00    +0.000 C 
ATOM      7  C   UNL     1       2.215   1.798  -1.367  0.00  0.00    +0.000 C 
ATOM      8  C   UNL     1       2.567   1.028  -2.668  0.00  0.00    +0.000 C 
ATOM      9  N   UNL     1       2.677  -0.396  -2.483  0.00  0.00    +0.000 NA
ATOM     10  C   UNL     1       3.531  -1.192  -3.368  0.00  0.00    +0.000 C 
ATOM     11  C   UNL     1       4.954  -0.628  -3.545  0.00  0.00    +0.000 C 
ATOM     12  C   UNL     1       4.892   0.844  -3.714  0.00  0.00    +0.000 A 
ATOM     13  C   UNL     1       3.798   1.573  -3.305  0.00  0.00    +0.000 A 
ATOM     14  N   UNL     1       4.010   2.882  -3.643  0.00  0.00    +0.000 N 
ATOM     15  C   UNL     1       5.267   3.020  -4.189  0.00  0.00    +0.000 A 
ATOM     16  C   UNL     1       5.939   4.162  -4.635  0.00  0.00    +0.000 A 
ATOM     17  C   UNL     1       7.227   3.984  -5.151  0.00  0.00    +0.000 A 
ATOM     18  C   UNL     1       7.815   2.722  -5.217  0.00  0.00    +0.000 A 
ATOM     19  C   UNL     1       7.130   1.593  -4.767  0.00  0.00    +0.000 A 
ATOM     20  C   UNL     1       5.837   1.746  -4.245  0.00  0.00    +0.000 A 
ATOM     21  C   UNL     1       2.288  -1.035  -1.277  0.00  0.00    +0.000 C 
ATOM     22  H   UNL     1       3.365   3.645  -3.488  0.00  0.00    +0.000 HD
ENDROOT
BRANCH   4  23
ATOM     23  O   UNL     1       3.515  -0.631   3.288  0.00  0.00    +0.000 OA
ATOM     24  H   UNL     1       3.092  -1.517   3.393  0.00  0.00    +0.000 HD
ENDBRANCH   4  23
BRANCH   5  25
ATOM     25  C   UNL     1       4.739   1.704   1.750  0.00  0.00    +0.000 C 
ATOM     26  O   UNL     1       4.200   2.271   2.727  0.00  0.00    +0.000 OA
BRANCH  25  27
ATOM     27  O   UNL     1       6.059   1.319   1.626  0.00  0.00    +0.000 OA
ATOM     28  C   UNL     1       6.679   0.725   2.779  0.00  0.00    +0.000 C 
ENDBRANCH  25  27
ENDBRANCH   5  25
TORSDOF 3
