REMARK  Name = Zafirlukast
REMARK  12 active torsions:
REMARK  status: ('A' for Active; 'I' for Inactive)
REMARK    1  A    between atoms: C_1  and  O_2
REMARK    2  A    between atoms: O_2  and  C_3
REMARK    3  A    between atoms: C_5  and  C_29
REMARK    4  A    between atoms: C_8  and  C_9
REMARK    5  A    between atoms: C_9  and  C_10
REMARK    6  A    between atoms: N_12  and  C_13
REMARK    7  A    between atoms: C_17  and  N_18
REMARK    8  A    between atoms: C_19  and  O_21
REMARK    9  A    between atoms: O_21  and  C_22
REMARK   10  A    between atoms: N_31  and  S_32
REMARK   11  A    between atoms: S_32  and  C_35
REMARK   12  A    between atoms: C_40  and  C_41
REMARK                            x       y       z     vdW  Elec       q    Type
REMARK                         _______ _______ _______ _____ _____    ______ ____
ROOT
ATOM      1  C   UNL     1       3.104   0.161   1.008  0.00  0.00    +0.000 A 
ATOM      2  C   UNL     1       4.295   1.002   1.191  0.00  0.00    +0.000 A 
ATOM      3  C   UNL     1       5.082   1.035   2.350  0.00  0.00    +0.000 A 
ATOM      4  C   UNL     1       4.500   0.358   3.415  0.00  0.00    +0.000 A 
ATOM      5  C   UNL     1       3.270  -0.490   3.230  0.00  0.00    +0.000 A 
ATOM      6  C   UNL     1       2.552  -0.727   1.955  0.00  0.00    +0.000 A 
ENDROOT
BRANCH   3   7
ATOM      7  C   UNL     1       6.478   1.675   2.276  0.00  0.00    +0.000 C 
ATOM      8  O   UNL     1       6.823   2.194   1.219  0.00  0.00    +0.000 OA
ATOM      9  N   UNL     1       7.387   1.574   3.374  0.00  0.00    +0.000 N 
ATOM     10  H   UNL     1       7.129   1.223   4.284  0.00  0.00    +0.000 HD
BRANCH   9  11
ATOM     11  S   UNL     1       8.983   2.170   3.225  0.00  0.00    +0.000 S 
ATOM     12  O   UNL     1       9.746   1.262   2.395  0.00  0.00    +0.000 OA
ATOM     13  O   UNL     1       8.871   3.574   2.899  0.00  0.00    +0.000 OA
BRANCH  11  14
ATOM     14  C   UNL     1       9.715   2.031   4.890  0.00  0.00    +0.000 A 
ATOM     15  C   UNL     1       9.928   0.750   5.429  0.00  0.00    +0.000 A 
ATOM     16  C   UNL     1      10.420   0.602   6.737  0.00  0.00    +0.000 A 
ATOM     17  C   UNL     1      10.803   1.718   7.478  0.00  0.00    +0.000 A 
ATOM     18  C   UNL     1      10.674   2.986   6.921  0.00  0.00    +0.000 A 
ATOM     19  C   UNL     1      10.142   3.159   5.626  0.00  0.00    +0.000 A 
ATOM     20  C   UNL     1      10.110   4.554   5.076  0.00  0.00    +0.000 C 
ENDBRANCH  11  14
ENDBRANCH   9  11
ENDBRANCH   3   7
BRANCH   1  22
ATOM     21  C   UNL     1       1.264   0.831  -0.061  0.00  0.00    +0.000 C 
ATOM     22  O   UNL     1       2.574   0.356  -0.228  0.00  0.00    +0.000 OA
ENDBRANCH   1  22
BRANCH   6  23
ATOM     23  C   UNL     1       1.136  -1.840   1.800  0.00  0.00    +0.000 C 
BRANCH  23  24
ATOM     24  C   UNL     1       0.018  -2.355   0.349  0.00  0.00    +0.000 A 
ATOM     25  C   UNL     1      -0.823  -1.344   0.775  0.00  0.00    +0.000 A 
ATOM     26  N   UNL     1      -1.286  -0.961  -0.439  0.00  0.00    +0.000 N 
ATOM     27  C   UNL     1      -0.582  -0.775  -1.724  0.00  0.00    +0.000 C 
ATOM     28  C   UNL     1      -2.296  -1.837  -0.351  0.00  0.00    +0.000 A 
ATOM     29  C   UNL     1      -1.472  -3.034  -0.588  0.00  0.00    +0.000 A 
ATOM     30  C   UNL     1      -2.931  -3.608  -1.220  0.00  0.00    +0.000 A 
ATOM     31  C   UNL     1      -4.426  -3.449  -0.811  0.00  0.00    +0.000 A 
ATOM     32  C   UNL     1      -4.500  -2.599   0.225  0.00  0.00    +0.000 A 
ATOM     33  C   UNL     1      -3.409  -1.851   0.524  0.00  0.00    +0.000 A 
BRANCH  31  34
ATOM     34  N   UNL     1      -5.803  -3.982  -1.273  0.00  0.00    +0.000 N 
ATOM     35  C   UNL     1      -7.011  -3.886  -0.378  0.00  0.00    +0.000 C 
ATOM     36  O   UNL     1      -7.044  -3.347   0.658  0.00  0.00    +0.000 OA
ATOM     37  H   UNL     1      -5.910  -4.475  -2.148  0.00  0.00    +0.000 HD
BRANCH  35  38
ATOM     38  O   UNL     1      -8.199  -4.561  -0.796  0.00  0.00    +0.000 OA
BRANCH  38  39
ATOM     39  C   UNL     1      -9.295  -4.519   0.241  0.00  0.00    +0.000 C 
ATOM     40  C   UNL     1     -10.240  -3.308   0.121  0.00  0.00    +0.000 C 
ATOM     41  C   UNL     1     -11.496  -3.667   0.930  0.00  0.00    +0.000 C 
ATOM     42  C   UNL     1     -11.605  -5.185   0.858  0.00  0.00    +0.000 C 
ATOM     43  C   UNL     1     -10.318  -5.674   0.159  0.00  0.00    +0.000 C 
ENDBRANCH  38  39
ENDBRANCH  35  38
ENDBRANCH  31  34
ENDBRANCH  23  24
ENDBRANCH   6  23
TORSDOF 9
