REMARK  Name = Zalcitabine
REMARK  3 active torsions:
REMARK  status: ('A' for Active; 'I' for Inactive)
REMARK    1  A    between atoms: N_6  and  C_9
REMARK    2  A    between atoms: C_12  and  C_13
REMARK    3  A    between atoms: C_13  and  O_14
REMARK                            x       y       z     vdW  Elec       q    Type
REMARK                         _______ _______ _______ _____ _____    ______ ____
ROOT
ATOM      1  N   UNL     1       8.473   5.163   0.644  0.00  0.00    +0.000 N 
ATOM      2  C   UNL     1       8.027   3.878   0.532  0.00  0.00    +0.000 A 
ATOM      3  N   UNL     1       7.129   3.610  -0.365  0.00  0.00    +0.000 NA
ATOM      4  C   UNL     1       6.677   2.318  -0.509  0.00  0.00    +0.000 A 
ATOM      5  O   UNL     1       5.953   2.014  -1.463  0.00  0.00    +0.000 OA
ATOM      6  N   UNL     1       7.063   1.357   0.436  0.00  0.00    +0.000 N 
ATOM      7  C   UNL     1       7.932   1.688   1.452  0.00  0.00    +0.000 A 
ATOM      8  C   UNL     1       8.558   2.862   1.457  0.00  0.00    +0.000 A 
ATOM      9  H   UNL     1       7.950   5.881   0.155  0.00  0.00    +0.000 HD
ATOM     10  H   UNL     1       9.044   5.461   1.423  0.00  0.00    +0.000 HD
ENDROOT
BRANCH   6  11
ATOM     11  C   UNL     1       6.648  -0.034   0.203  0.00  0.00    +0.000 C 
ATOM     12  C   UNL     1       7.184  -0.626  -1.104  0.00  0.00    +0.000 C 
ATOM     13  C   UNL     1       8.461  -1.304  -0.690  0.00  0.00    +0.000 C 
ATOM     14  C   UNL     1       8.135  -1.794   0.707  0.00  0.00    +0.000 C 
ATOM     15  O   UNL     1       7.142  -0.904   1.252  0.00  0.00    +0.000 OA
BRANCH  14  16
ATOM     16  C   UNL     1       9.379  -1.837   1.596  0.00  0.00    +0.000 C 
BRANCH  16  17
ATOM     17  O   UNL     1      10.371  -2.711   1.070  0.00  0.00    +0.000 OA
ATOM     18  H   UNL     1       9.991  -3.607   1.039  0.00  0.00    +0.000 HD
ENDBRANCH  16  17
ENDBRANCH  14  16
ENDBRANCH   6  11
TORSDOF 3
