REMARK  Name = Zaleplon
REMARK  6 active torsions:
REMARK  status: ('A' for Active; 'I' for Inactive)
REMARK    1  A    between atoms: C_1  and  C_2
REMARK    2  A    between atoms: C_2  and  N_3
REMARK    3  A    between atoms: N_3  and  C_7
REMARK    4  A    between atoms: C_4  and  C_5
REMARK    5  A    between atoms: C_11  and  C_13
REMARK    6  A    between atoms: C_18  and  C_22
REMARK                            x       y       z     vdW  Elec       q    Type
REMARK                         _______ _______ _______ _____ _____    ______ ____
ROOT
ATOM      1  C   UNL     1       4.412   1.168   0.995  0.00  0.00    +0.000 A 
ATOM      2  C   UNL     1       5.010   1.428   2.233  0.00  0.00    +0.000 A 
ATOM      3  C   UNL     1       6.337   1.847   2.320  0.00  0.00    +0.000 A 
ATOM      4  C   UNL     1       7.144   1.828   1.192  0.00  0.00    +0.000 A 
ATOM      5  C   UNL     1       6.600   1.464  -0.044  0.00  0.00    +0.000 A 
ATOM      6  C   UNL     1       5.237   1.128  -0.135  0.00  0.00    +0.000 A 
ENDROOT
BRANCH   5   7
ATOM      7  C   UNL     1       7.425   1.547  -1.258  0.00  0.00    +0.000 A 
ATOM      8  C   UNL     1       8.518   0.772  -1.369  0.00  0.00    +0.000 A 
ATOM      9  C   UNL     1       9.287   0.920  -2.630  0.00  0.00    +0.000 A 
ATOM     10  N   UNL     1       9.002   1.716  -3.615  0.00  0.00    +0.000 NA
ATOM     11  C   UNL     1       7.883   2.490  -3.460  0.00  0.00    +0.000 A 
ATOM     12  C   UNL     1       7.284   3.425  -4.272  0.00  0.00    +0.000 A 
ATOM     13  C   UNL     1       6.169   3.884  -3.563  0.00  0.00    +0.000 A 
ATOM     14  N   UNL     1       6.041   3.294  -2.375  0.00  0.00    +0.000 NA
ATOM     15  N   UNL     1       7.091   2.427  -2.304  0.00  0.00    +0.000 N 
BRANCH  12  16
ATOM     16  C   UNL     1       7.722   3.835  -5.562  0.00  0.00    +0.000 C 
ATOM     17  N   UNL     1       8.048   4.194  -6.612  0.00  0.00    +0.000 NA
ENDBRANCH  12  16
ENDBRANCH   5   7
BRANCH   1  18
ATOM     18  N   UNL     1       2.984   1.051   0.878  0.00  0.00    +0.000 N 
ATOM     19  C   UNL     1       2.088   1.912   1.537  0.00  0.00    +0.000 C 
ATOM     20  C   UNL     1       2.575   3.076   2.358  0.00  0.00    +0.000 C 
ATOM     21  O   UNL     1       0.856   1.822   1.476  0.00  0.00    +0.000 OA
BRANCH  18  23
ATOM     22  C   UNL     1       0.981  -0.175  -0.119  0.00  0.00    +0.000 C 
ATOM     23  C   UNL     1       2.491  -0.030  -0.016  0.00  0.00    +0.000 C 
ENDBRANCH  18  23
ENDBRANCH   1  18
TORSDOF 4
