REMARK  Name = Zanamivir
REMARK  11 active torsions:
REMARK  status: ('A' for Active; 'I' for Inactive)
REMARK    1  A    between atoms: C_2  and  C_19
REMARK    2  A    between atoms: C_4  and  C_16
REMARK    3  A    between atoms: C_6  and  N_7
REMARK    4  A    between atoms: C_11  and  N_12
REMARK    5  A    between atoms: C_13  and  C_14
REMARK    6  A    between atoms: C_16  and  O_17
REMARK    7  A    between atoms: C_19  and  O_20
REMARK    8  A    between atoms: C_19  and  C_21
REMARK    9  A    between atoms: C_21  and  O_22
REMARK   10  A    between atoms: C_21  and  C_23
REMARK   11  A    between atoms: C_23  and  O_24
REMARK                            x       y       z     vdW  Elec       q    Type
REMARK                         _______ _______ _______ _____ _____    ______ ____
ROOT
ATOM      1  C   UNL     1       6.056  -1.582   0.065  0.00  0.00    +0.000 C 
ATOM      2  O   UNL     1       6.508  -1.500   1.427  0.00  0.00    +0.000 OA
ATOM      3  C   UNL     1       7.904  -1.483   1.598  0.00  0.00    +0.000 C 
ATOM      4  C   UNL     1       8.767  -1.091   0.637  0.00  0.00    +0.000 C 
ATOM      5  C   UNL     1       8.366  -0.626  -0.711  0.00  0.00    +0.000 C 
ATOM      6  C   UNL     1       6.848  -0.618  -0.779  0.00  0.00    +0.000 C 
ENDROOT
BRANCH   5   7
ATOM      7  N   UNL     1       8.931   0.713  -1.016  0.00  0.00    +0.000 NA
ATOM      8  C   UNL     1       8.758   1.279  -2.162  0.00  0.00    +0.000 C 
ATOM      9  N   UNL     1       8.160   0.806  -3.268  0.00  0.00    +0.000 N 
ATOM     10  N   UNL     1       9.219   2.516  -2.418  0.00  0.00    +0.000 N 
ATOM     11  H   UNL     1       7.869  -0.155  -3.285  0.00  0.00    +0.000 HD
ATOM     12  H   UNL     1       7.832   1.364  -4.044  0.00  0.00    +0.000 HD
ATOM     13  H   UNL     1       9.885   2.917  -1.775  0.00  0.00    +0.000 HD
ATOM     14  H   UNL     1       9.161   2.918  -3.343  0.00  0.00    +0.000 HD
ENDBRANCH   5   7
BRANCH   6  15
ATOM     15  N   UNL     1       6.529  -0.838  -2.146  0.00  0.00    +0.000 N 
ATOM     16  C   UNL     1       6.693  -1.923  -2.965  0.00  0.00    +0.000 C 
ATOM     17  C   UNL     1       7.017  -3.268  -2.418  0.00  0.00    +0.000 C 
ATOM     18  O   UNL     1       6.500  -1.756  -4.166  0.00  0.00    +0.000 OA
ATOM     19  H   UNL     1       6.183   0.051  -2.516  0.00  0.00    +0.000 HD
ENDBRANCH   6  15
BRANCH   3  20
ATOM     20  C   UNL     1       8.381  -1.928   2.956  0.00  0.00    +0.000 C 
ATOM     21  O   UNL     1       7.625  -2.311   3.814  0.00  0.00    +0.000 OA
BRANCH  20  22
ATOM     22  O   UNL     1       9.722  -1.893   3.158  0.00  0.00    +0.000 OA
ATOM     23  H   UNL     1      10.280  -1.540   2.452  0.00  0.00    +0.000 HD
ENDBRANCH  20  22
ENDBRANCH   3  20
BRANCH   1  24
ATOM     24  C   UNL     1       4.490  -1.414  -0.169  0.00  0.00    +0.000 C 
BRANCH  24  25
ATOM     25  O   UNL     1       3.926  -0.925   1.063  0.00  0.00    +0.000 OA
ATOM     26  H   UNL     1       4.286  -0.032   1.209  0.00  0.00    +0.000 HD
ENDBRANCH  24  25
BRANCH  24  27
ATOM     27  C   UNL     1       3.859  -0.522  -1.348  0.00  0.00    +0.000 C 
BRANCH  27  28
ATOM     28  O   UNL     1       2.428  -0.557  -1.168  0.00  0.00    +0.000 OA
ATOM     29  H   UNL     1       2.146  -1.464  -1.383  0.00  0.00    +0.000 HD
ENDBRANCH  27  28
BRANCH  27  30
ATOM     30  C   UNL     1       4.014  -0.821  -2.870  0.00  0.00    +0.000 C 
BRANCH  30  31
ATOM     31  O   UNL     1       4.853   0.171  -3.513  0.00  0.00    +0.000 OA
ATOM     32  H   UNL     1       5.539  -0.307  -4.038  0.00  0.00    +0.000 HD
ENDBRANCH  30  31
ENDBRANCH  27  30
ENDBRANCH  24  27
ENDBRANCH   1  24
TORSDOF 10
