REMARK  Name = Zanubrutinib
REMARK  6 active torsions:
REMARK  status: ('A' for Active; 'I' for Inactive)
REMARK    1  A    between atoms: C_2  and  C_4
REMARK    2  A    between atoms: C_9  and  C_10
REMARK    3  A    between atoms: C_16  and  C_18
REMARK    4  A    between atoms: C_22  and  C_23
REMARK    5  A    between atoms: C_26  and  O_27
REMARK    6  A    between atoms: O_27  and  C_28
REMARK                            x       y       z     vdW  Elec       q    Type
REMARK                         _______ _______ _______ _____ _____    ______ ____
ROOT
ATOM      1  C   UNL     1       3.087   0.691   1.006  0.00  0.00    +0.000 A 
ATOM      2  C   UNL     1       2.846   0.696   2.361  0.00  0.00    +0.000 A 
ATOM      3  N   UNL     1       2.008  -0.021   3.142  0.00  0.00    +0.000 N 
ATOM      4  C   UNL     1       1.745   0.373   4.502  0.00  0.00    +0.000 C 
ATOM      5  C   UNL     1       2.997   0.899   5.147  0.00  0.00    +0.000 C 
ATOM      6  C   UNL     1       3.824   1.908   4.333  0.00  0.00    +0.000 C 
ATOM      7  N   UNL     1       3.722   1.607   2.902  0.00  0.00    +0.000 N 
ATOM      8  N   UNL     1       4.524   2.191   1.990  0.00  0.00    +0.000 NA
ATOM      9  C   UNL     1       4.171   1.608   0.829  0.00  0.00    +0.000 A 
ATOM     10  H   UNL     1       1.484  -0.816   2.780  0.00  0.00    +0.000 HD
ENDROOT
BRANCH   6  11
ATOM     11  C   UNL     1       5.305   2.056   4.831  0.00  0.00    +0.000 C 
ATOM     12  C   UNL     1       6.208   0.850   4.485  0.00  0.00    +0.000 C 
ATOM     13  C   UNL     1       6.004  -0.366   5.381  0.00  0.00    +0.000 C 
ATOM     14  N   UNL     1       6.037   0.016   6.804  0.00  0.00    +0.000 N 
ATOM     15  C   UNL     1       5.191   1.135   7.217  0.00  0.00    +0.000 C 
ATOM     16  C   UNL     1       5.419   2.359   6.338  0.00  0.00    +0.000 C 
ATOM     17  C   UNL     1       6.812  -0.753   7.652  0.00  0.00    +0.000 C 
ATOM     18  O   UNL     1       7.458  -1.722   7.257  0.00  0.00    +0.000 OA
BRANCH  17  19
ATOM     19  C   UNL     1       6.874  -0.356   9.086  0.00  0.00    +0.000 C 
ATOM     20  C   UNL     1       7.677  -1.009   9.932  0.00  0.00    +0.000 C 
ENDBRANCH  17  19
ENDBRANCH   6  11
BRANCH   9  21
ATOM     21  C   UNL     1       4.742   2.025  -0.446  0.00  0.00    +0.000 A 
ATOM     22  C   UNL     1       6.102   1.895  -0.748  0.00  0.00    +0.000 A 
ATOM     23  C   UNL     1       6.590   2.341  -1.989  0.00  0.00    +0.000 A 
ATOM     24  C   UNL     1       5.710   2.823  -2.967  0.00  0.00    +0.000 A 
ATOM     25  C   UNL     1       4.355   2.932  -2.658  0.00  0.00    +0.000 A 
ATOM     26  C   UNL     1       3.880   2.558  -1.407  0.00  0.00    +0.000 A 
BRANCH  24  27
ATOM     27  O   UNL     1       6.249   3.102  -4.210  0.00  0.00    +0.000 OA
BRANCH  27  28
ATOM     28  C   UNL     1       5.417   3.565  -5.208  0.00  0.00    +0.000 A 
ATOM     29  C   UNL     1       5.307   2.829  -6.389  0.00  0.00    +0.000 A 
ATOM     30  C   UNL     1       4.539   3.327  -7.448  0.00  0.00    +0.000 A 
ATOM     31  C   UNL     1       3.817   4.512  -7.294  0.00  0.00    +0.000 A 
ATOM     32  C   UNL     1       3.921   5.241  -6.111  0.00  0.00    +0.000 A 
ATOM     33  C   UNL     1       4.753   4.789  -5.087  0.00  0.00    +0.000 A 
ENDBRANCH  27  28
ENDBRANCH  24  27
ENDBRANCH   9  21
BRANCH   1  35
ATOM     34  N   UNL     1       1.042  -0.075   0.042  0.00  0.00    +0.000 N 
ATOM     35  C   UNL     1       2.412  -0.064  -0.031  0.00  0.00    +0.000 C 
ATOM     36  O   UNL     1       2.981  -0.609  -0.959  0.00  0.00    +0.000 OA
ATOM     37  H   UNL     1       0.554  -0.478  -0.747  0.00  0.00    +0.000 HD
ATOM     38  H   UNL     1       0.533   0.483   0.711  0.00  0.00    +0.000 HD
ENDBRANCH   1  35
TORSDOF 6
