REMARK  Name = Zeaxanthin
REMARK  22 active torsions:
REMARK  status: ('A' for Active; 'I' for Inactive)
REMARK    1  A    between atoms: C_1  and  C_2
REMARK    2  A    between atoms: C_2  and  C_3
REMARK    3  A    between atoms: C_4  and  C_5
REMARK    4  A    between atoms: C_6  and  C_7
REMARK    5  A    between atoms: C_6  and  C_8
REMARK    6  A    between atoms: C_9  and  C_10
REMARK    7  A    between atoms: C_11  and  C_12
REMARK    8  A    between atoms: C_14  and  O_15
REMARK    9  A    between atoms: C_17  and  C_18
REMARK   10  A    between atoms: C_17  and  C_19
REMARK   11  A    between atoms: C_20  and  C_21
REMARK   12  A    between atoms: C_22  and  C_23
REMARK   13  A    between atoms: C_24  and  C_25
REMARK   14  A    between atoms: C_24  and  C_26
REMARK   15  A    between atoms: C_27  and  C_28
REMARK   16  A    between atoms: C_29  and  C_30
REMARK   17  A    between atoms: C_29  and  C_31
REMARK   18  A    between atoms: C_32  and  C_33
REMARK   19  A    between atoms: C_34  and  C_35
REMARK   20  A    between atoms: C_37  and  O_38
REMARK   21  A    between atoms: C_40  and  C_41
REMARK   22  A    between atoms: C_40  and  C_42
REMARK                            x       y       z     vdW  Elec       q    Type
REMARK                         _______ _______ _______ _____ _____    ______ ____
ROOT
ATOM      1  C   UNL     1       2.378  -2.276   1.116  0.00  0.00    +0.000 C 
ATOM      2  C   UNL     1       3.021  -3.343   1.610  0.00  0.00    +0.000 C 
ENDROOT
BRANCH   1   5
ATOM      3  C   UNL     1       0.918  -0.016   0.069  0.00  0.00    +0.000 C 
ATOM      4  C   UNL     1       2.433  -0.031   0.075  0.00  0.00    +0.000 C 
ATOM      5  C   UNL     1       3.070  -1.114   0.577  0.00  0.00    +0.000 C 
BRANCH   4   6
ATOM      6  C   UNL     1       3.196   1.107  -0.454  0.00  0.00    +0.000 C 
ATOM      7  C   UNL     1       2.618   2.208  -0.966  0.00  0.00    +0.000 C 
BRANCH   7   8
ATOM      8  C   UNL     1       3.243   3.391  -1.503  0.00  0.00    +0.000 C 
ATOM      9  C   UNL     1       2.546   4.452  -1.985  0.00  0.00    +0.000 C 
ATOM     10  C   UNL     1       1.038   4.539  -2.042  0.00  0.00    +0.000 C 
BRANCH   9  11
ATOM     11  C   UNL     1       3.273   5.626  -2.465  0.00  0.00    +0.000 C 
ATOM     12  C   UNL     1       2.739   6.715  -3.052  0.00  0.00    +0.000 C 
BRANCH  12  13
ATOM     13  C   UNL     1       3.437   7.910  -3.545  0.00  0.00    +0.000 C 
ATOM     14  C   UNL     1       2.930   9.127  -3.242  0.00  0.00    +0.000 C 
ATOM     15  C   UNL     1       1.753   9.372  -2.321  0.00  0.00    +0.000 C 
ATOM     16  C   UNL     1       3.465  10.412  -3.806  0.00  0.00    +0.000 C 
ATOM     17  C   UNL     1       4.733  10.366  -4.642  0.00  0.00    +0.000 C 
ATOM     18  C   UNL     1       5.235   9.027  -5.128  0.00  0.00    +0.000 C 
ATOM     19  C   UNL     1       4.608   7.736  -4.531  0.00  0.00    +0.000 C 
ATOM     20  C   UNL     1       4.070   6.967  -5.760  0.00  0.00    +0.000 C 
ATOM     21  C   UNL     1       5.795   7.021  -3.850  0.00  0.00    +0.000 C 
BRANCH  17  22
ATOM     22  O   UNL     1       5.794  10.965  -3.887  0.00  0.00    +0.000 OA
ATOM     23  H   UNL     1       5.939  10.386  -3.117  0.00  0.00    +0.000 HD
ENDBRANCH  17  22
ENDBRANCH  12  13
ENDBRANCH   9  11
ENDBRANCH   7   8
ENDBRANCH   4   6
ENDBRANCH   1   5
BRANCH   2  24
ATOM     24  C   UNL     1       2.360  -4.518   2.153  0.00  0.00    +0.000 C 
ATOM     25  C   UNL     1       3.003  -5.599   2.650  0.00  0.00    +0.000 C 
ATOM     26  C   UNL     1       4.515  -5.689   2.695  0.00  0.00    +0.000 C 
BRANCH  25  27
ATOM     27  C   UNL     1       2.246  -6.750   3.181  0.00  0.00    +0.000 C 
ATOM     28  C   UNL     1       2.843  -7.844   3.686  0.00  0.00    +0.000 C 
BRANCH  28  29
ATOM     29  C   UNL     1       2.225  -9.023   4.254  0.00  0.00    +0.000 C 
ATOM     30  C   UNL     1       2.917 -10.074   4.764  0.00  0.00    +0.000 C 
ATOM     31  C   UNL     1       4.421 -10.183   4.780  0.00  0.00    +0.000 C 
BRANCH  30  32
ATOM     32  C   UNL     1       2.195 -11.191   5.376  0.00  0.00    +0.000 C 
ATOM     33  C   UNL     1       2.713 -12.356   5.812  0.00  0.00    +0.000 C 
BRANCH  33  34
ATOM     34  C   UNL     1       1.976 -13.501   6.376  0.00  0.00    +0.000 C 
ATOM     35  C   UNL     1       2.407 -14.073   7.522  0.00  0.00    +0.000 C 
ATOM     36  C   UNL     1       3.570 -13.584   8.357  0.00  0.00    +0.000 C 
ATOM     37  C   UNL     1       1.783 -15.305   8.120  0.00  0.00    +0.000 C 
ATOM     38  C   UNL     1       0.516 -15.857   7.489  0.00  0.00    +0.000 C 
ATOM     39  C   UNL     1       0.111 -15.361   6.121  0.00  0.00    +0.000 C 
ATOM     40  C   UNL     1       0.830 -14.111   5.543  0.00  0.00    +0.000 C 
ATOM     41  C   UNL     1       1.436 -14.598   4.206  0.00  0.00    +0.000 C 
ATOM     42  C   UNL     1      -0.303 -13.083   5.338  0.00  0.00    +0.000 C 
BRANCH  38  43
ATOM     43  O   UNL     1      -0.582 -15.595   8.373  0.00  0.00    +0.000 OA
ATOM     44  H   UNL     1      -0.680 -14.626   8.405  0.00  0.00    +0.000 HD
ENDBRANCH  38  43
ENDBRANCH  33  34
ENDBRANCH  30  32
ENDBRANCH  28  29
ENDBRANCH  25  27
ENDBRANCH   2  24
TORSDOF 12
