REMARK  Name = Zidovudine
REMARK  5 active torsions:
REMARK  status: ('A' for Active; 'I' for Inactive)
REMARK    1  A    between atoms: C_1  and  C_2
REMARK    2  A    between atoms: N_4  and  C_5
REMARK    3  A    between atoms: C_7  and  N_8
REMARK    4  A    between atoms: C_11  and  C_12
REMARK    5  A    between atoms: C_12  and  O_13
REMARK                            x       y       z     vdW  Elec       q    Type
REMARK                         _______ _______ _______ _____ _____    ______ ____
ROOT
ATOM      1  C   UNL     1       5.410   2.580  -0.276  0.00  0.00    +0.000 C 
ATOM      2  C   UNL     1       5.428   3.697   0.756  0.00  0.00    +0.000 C 
ATOM      3  C   UNL     1       5.770   4.912  -0.075  0.00  0.00    +0.000 C 
ATOM      4  C   UNL     1       5.033   4.611  -1.378  0.00  0.00    +0.000 C 
ATOM      5  O   UNL     1       4.960   3.178  -1.498  0.00  0.00    +0.000 OA
ENDROOT
BRANCH   1   9
ATOM      6  C   UNL     1       8.804  -0.302   1.877  0.00  0.00    +0.000 C 
ATOM      7  C   UNL     1       8.339   0.550   0.741  0.00  0.00    +0.000 A 
ATOM      8  C   UNL     1       7.208   1.264   0.740  0.00  0.00    +0.000 A 
ATOM      9  N   UNL     1       6.737   1.939  -0.383  0.00  0.00    +0.000 N 
ATOM     10  C   UNL     1       7.484   1.966  -1.553  0.00  0.00    +0.000 A 
ATOM     11  O   UNL     1       7.135   2.419  -2.638  0.00  0.00    +0.000 OA
ATOM     12  N   UNL     1       8.743   1.432  -1.456  0.00  0.00    +0.000 N 
ATOM     13  C   UNL     1       9.172   0.587  -0.478  0.00  0.00    +0.000 A 
ATOM     14  O   UNL     1      10.182  -0.096  -0.596  0.00  0.00    +0.000 OA
ATOM     15  H   UNL     1       9.287   1.462  -2.303  0.00  0.00    +0.000 HD
ENDBRANCH   1   9
BRANCH   3  16
ATOM     16  N   UNL     1       5.249   6.117   0.579  0.00  0.00    +0.000 NA
ATOM     17  N   UNL     1       6.094   6.917   1.034  0.00  0.00    +0.000 NA
ATOM     18  N   UNL     1       6.844   7.647   1.473  0.00  0.00    +0.000 NA
ENDBRANCH   3  16
BRANCH   4  19
ATOM     19  C   UNL     1       5.725   5.234  -2.593  0.00  0.00    +0.000 C 
BRANCH  19  20
ATOM     20  O   UNL     1       5.794   6.653  -2.478  0.00  0.00    +0.000 OA
ATOM     21  H   UNL     1       4.881   6.983  -2.417  0.00  0.00    +0.000 HD
ENDBRANCH  19  20
ENDBRANCH   4  19
TORSDOF 4
