REMARK  Name = Zileuton
REMARK  4 active torsions:
REMARK  status: ('A' for Active; 'I' for Inactive)
REMARK    1  A    between atoms: C_1  and  C_2
REMARK    2  A    between atoms: C_2  and  N_3
REMARK    3  A    between atoms: C_2  and  C_8
REMARK    4  A    between atoms: N_3  and  O_4
REMARK                            x       y       z     vdW  Elec       q    Type
REMARK                         _______ _______ _______ _____ _____    ______ ____
ROOT
ATOM      1  C   UNL     1       0.891   0.032  -0.011  0.00  0.00    +0.000 C 
ATOM      2  C   UNL     1       2.433   0.066  -0.019  0.00  0.00    +0.000 C 
ENDROOT
BRANCH   2   3
ATOM      3  C   UNL     1       3.014  -1.323   0.269  0.00  0.00    +0.000 A 
ATOM      4  C   UNL     1       4.230  -1.682   0.822  0.00  0.00    +0.000 A 
ATOM      5  C   UNL     1       4.357  -3.080   1.088  0.00  0.00    +0.000 A 
ATOM      6  C   UNL     1       5.372  -3.779   1.773  0.00  0.00    +0.000 A 
ATOM      7  C   UNL     1       5.333  -5.171   1.846  0.00  0.00    +0.000 A 
ATOM      8  C   UNL     1       4.290  -5.875   1.257  0.00  0.00    +0.000 A 
ATOM      9  C   UNL     1       3.253  -5.204   0.605  0.00  0.00    +0.000 A 
ATOM     10  C   UNL     1       3.301  -3.800   0.537  0.00  0.00    +0.000 A 
ATOM     11  S   UNL     1       2.164  -2.752  -0.198  0.00  0.00    +0.000 S 
ENDBRANCH   2   3
BRANCH   2  12
ATOM     12  N   UNL     1       2.912   1.146   0.904  0.00  0.00    +0.000 N 
ATOM     13  C   UNL     1       2.628   2.492   0.866  0.00  0.00    +0.000 C 
ATOM     14  N   UNL     1       1.886   2.939  -0.178  0.00  0.00    +0.000 N 
ATOM     15  O   UNL     1       2.978   3.315   1.714  0.00  0.00    +0.000 OA
ATOM     16  H   UNL     1       1.610   2.390  -0.973  0.00  0.00    +0.000 HD
ATOM     17  H   UNL     1       1.642   3.920  -0.167  0.00  0.00    +0.000 HD
BRANCH  12  18
ATOM     18  O   UNL     1       3.726   0.797   2.012  0.00  0.00    +0.000 OA
ATOM     19  H   UNL     1       3.349  -0.033   2.346  0.00  0.00    +0.000 HD
ENDBRANCH  12  18
ENDBRANCH   2  12
TORSDOF 3
