REMARK  Name = Zimelidine
REMARK  6 active torsions:
REMARK  status: ('A' for Active; 'I' for Inactive)
REMARK    1  A    between atoms: C_1  and  N_2
REMARK    2  A    between atoms: N_2  and  C_3
REMARK    3  A    between atoms: N_2  and  C_4
REMARK    4  A    between atoms: C_4  and  C_5
REMARK    5  A    between atoms: C_6  and  C_7
REMARK    6  A    between atoms: C_6  and  C_14
REMARK                            x       y       z     vdW  Elec       q    Type
REMARK                         _______ _______ _______ _____ _____    ______ ____
ROOT
ATOM      1  C   UNL     1       4.546   0.927   1.191  0.00  0.00    +0.000 C 
ATOM      2  C   UNL     1       5.226   1.680   2.093  0.00  0.00    +0.000 C 
ENDROOT
BRANCH   2   3
ATOM      3  C   UNL     1       6.718   1.674   2.061  0.00  0.00    +0.000 A 
ATOM      4  C   UNL     1       7.461   1.799   0.875  0.00  0.00    +0.000 A 
ATOM      5  C   UNL     1       8.853   1.944   0.919  0.00  0.00    +0.000 A 
ATOM      6  C   UNL     1       9.510   1.972   2.148  0.00  0.00    +0.000 A 
ATOM      7 BR   UNL     1      11.381   2.228   2.217  0.00  0.00    +0.000 Br
ATOM      8  C   UNL     1       8.794   1.828   3.332  0.00  0.00    +0.000 A 
ATOM      9  C   UNL     1       7.409   1.670   3.285  0.00  0.00    +0.000 A 
ENDBRANCH   2   3
BRANCH   2  10
ATOM     10  C   UNL     1       4.472   2.498   3.083  0.00  0.00    +0.000 A 
ATOM     11  C   UNL     1       3.433   1.974   3.861  0.00  0.00    +0.000 A 
ATOM     12  C   UNL     1       2.742   2.781   4.754  0.00  0.00    +0.000 A 
ATOM     13  C   UNL     1       3.175   4.083   4.918  0.00  0.00    +0.000 A 
ATOM     14  N   UNL     1       4.209   4.621   4.238  0.00  0.00    +0.000 NA
ATOM     15  C   UNL     1       4.825   3.823   3.332  0.00  0.00    +0.000 A 
ENDBRANCH   2  10
BRANCH   1  16
ATOM     16  C   UNL     1       3.046   0.900   1.027  0.00  0.00    +0.000 C 
BRANCH  16  18
ATOM     17  C   UNL     1       1.081   0.054  -0.016  0.00  0.00    +0.000 C 
ATOM     18  N   UNL     1       2.551   0.065  -0.071  0.00  0.00    +0.000 NA
ATOM     19  C   UNL     1       2.992   0.576  -1.366  0.00  0.00    +0.000 C 
ENDBRANCH  16  18
ENDBRANCH   1  16
TORSDOF 4
