REMARK  Name = Zinc gluconate
REMARK  20 active torsions:
REMARK  status: ('A' for Active; 'I' for Inactive)
REMARK    1  A    between atoms: C_3  and  O_4
REMARK    2  A    between atoms: C_3  and  C_5
REMARK    3  A    between atoms: C_3  and  C_7
REMARK    4  A    between atoms: C_5  and  O_6
REMARK    5  A    between atoms: C_7  and  O_9
REMARK    6  A    between atoms: C_7  and  C_10
REMARK    7  A    between atoms: C_10  and  O_12
REMARK    8  A    between atoms: C_10  and  C_13
REMARK    9  A    between atoms: C_13  and  O_15
REMARK   10  A    between atoms: C_13  and  C_16
REMARK   11  A    between atoms: C_20  and  O_21
REMARK   12  A    between atoms: C_20  and  C_22
REMARK   13  A    between atoms: C_20  and  C_24
REMARK   14  A    between atoms: C_22  and  O_23
REMARK   15  A    between atoms: C_24  and  O_26
REMARK   16  A    between atoms: C_24  and  C_27
REMARK   17  A    between atoms: C_27  and  O_29
REMARK   18  A    between atoms: C_27  and  C_30
REMARK   19  A    between atoms: C_30  and  O_32
REMARK   20  A    between atoms: C_30  and  C_33
REMARK                            x       y       z     vdW  Elec       q    Type
REMARK                         _______ _______ _______ _____ _____    ______ ____
ROOT
ATOM      1 ZN   UNL     1       1.029   0.020   0.192  0.00  0.00    +0.000 Zn
ENDROOT
TORSDOF 0
REMARK  Name = Zinc gluconate
REMARK  20 active torsions:
REMARK  status: ('A' for Active; 'I' for Inactive)
REMARK    1  A    between atoms: C_3  and  O_4
REMARK    2  A    between atoms: C_3  and  C_5
REMARK    3  A    between atoms: C_3  and  C_7
REMARK    4  A    between atoms: C_5  and  O_6
REMARK    5  A    between atoms: C_7  and  O_9
REMARK    6  A    between atoms: C_7  and  C_10
REMARK    7  A    between atoms: C_10  and  O_12
REMARK    8  A    between atoms: C_10  and  C_13
REMARK    9  A    between atoms: C_13  and  O_15
REMARK   10  A    between atoms: C_13  and  C_16
REMARK   11  A    between atoms: C_20  and  O_21
REMARK   12  A    between atoms: C_20  and  C_22
REMARK   13  A    between atoms: C_20  and  C_24
REMARK   14  A    between atoms: C_22  and  O_23
REMARK   15  A    between atoms: C_24  and  O_26
REMARK   16  A    between atoms: C_24  and  C_27
REMARK   17  A    between atoms: C_27  and  O_29
REMARK   18  A    between atoms: C_27  and  C_30
REMARK   19  A    between atoms: C_30  and  O_32
REMARK   20  A    between atoms: C_30  and  C_33
REMARK                            x       y       z     vdW  Elec       q    Type
REMARK                         _______ _______ _______ _____ _____    ______ ____
ROOT
ATOM      1  C   UNL     2       4.365   1.570  -1.176  0.00  0.00    +0.000 C 
ENDROOT
BRANCH   1   2
ATOM      2  O   UNL     2       4.286   2.193  -2.590  0.00  0.00    +0.000 OA
ATOM      3  H   UNL     2       5.175   2.375  -2.996  0.00  0.00    +0.000 HD
ENDBRANCH   1   2
BRANCH   1   4
ATOM      4  C   UNL     2       6.194   1.789  -0.599  0.00  0.00    +0.000 C 
BRANCH   4   5
ATOM      5  O   UNL     2       7.557   1.798  -1.718  0.00  0.00    +0.000 OA
ATOM      6  H   UNL     2       7.981   0.931  -2.125  0.00  0.00    +0.000 HD
ENDBRANCH   4   5
BRANCH   4   7
ATOM      7  C   UNL     2       6.410   0.986   1.041  0.00  0.00    +0.000 C 
BRANCH   7   8
ATOM      8  O   UNL     2       7.717   0.839   1.629  0.00  0.00    +0.000 OA
ATOM      9  H   UNL     2       8.214   0.084   1.188  0.00  0.00    +0.000 HD
ENDBRANCH   7   8
ENDBRANCH   4   7
ENDBRANCH   1   4
BRANCH   1  10
ATOM     10  C   UNL     2       3.546  -0.284  -0.895  0.00  0.00    +0.000 C 
BRANCH  10  11
ATOM     11  O   UNL     2       4.667  -0.751   0.532  0.00  0.00    +0.000 OA
ATOM     12  H   UNL     2       5.154  -1.778   0.584  0.00  0.00    +0.000 HD
ENDBRANCH  10  11
BRANCH  10  13
ATOM     13  C   UNL     2       3.942  -1.557  -2.517  0.00  0.00    +0.000 C 
BRANCH  13  14
ATOM     14  C   UNL     2       5.778  -2.274  -2.977  0.00  0.00    +0.000 C 
ATOM     15  O   UNL     2       6.650  -2.049  -2.085  0.00  0.00    +0.000 OA
ATOM     16  O   UNL     2       6.123  -2.574  -4.138  0.00  0.00    +0.000 OA
ENDBRANCH  13  14
BRANCH  13  17
ATOM     17  O   UNL     2       3.623  -1.305  -3.915  0.00  0.00    +0.000 OA
ATOM     18  H   UNL     2       2.764  -0.926  -3.812  0.00  0.00    +0.000 HD
ENDBRANCH  13  17
ENDBRANCH  10  13
ENDBRANCH   1  10
TORSDOF 10
REMARK  Name = Zinc gluconate
REMARK  20 active torsions:
REMARK  status: ('A' for Active; 'I' for Inactive)
REMARK    1  A    between atoms: C_3  and  O_4
REMARK    2  A    between atoms: C_3  and  C_5
REMARK    3  A    between atoms: C_3  and  C_7
REMARK    4  A    between atoms: C_5  and  O_6
REMARK    5  A    between atoms: C_7  and  O_9
REMARK    6  A    between atoms: C_7  and  C_10
REMARK    7  A    between atoms: C_10  and  O_12
REMARK    8  A    between atoms: C_10  and  C_13
REMARK    9  A    between atoms: C_13  and  O_15
REMARK   10  A    between atoms: C_13  and  C_16
REMARK   11  A    between atoms: C_20  and  O_21
REMARK   12  A    between atoms: C_20  and  C_22
REMARK   13  A    between atoms: C_20  and  C_24
REMARK   14  A    between atoms: C_22  and  O_23
REMARK   15  A    between atoms: C_24  and  O_26
REMARK   16  A    between atoms: C_24  and  C_27
REMARK   17  A    between atoms: C_27  and  O_29
REMARK   18  A    between atoms: C_27  and  C_30
REMARK   19  A    between atoms: C_30  and  O_32
REMARK   20  A    between atoms: C_30  and  C_33
REMARK                            x       y       z     vdW  Elec       q    Type
REMARK                         _______ _______ _______ _____ _____    ______ ____
ROOT
ATOM      1  C   UNL     3       5.085  -0.542  -1.576  0.00  0.00    +0.000 C 
ENDROOT
BRANCH   1   2
ATOM      2  O   UNL     3       3.643   0.263  -2.556  0.00  0.00    +0.000 OA
ATOM      3  H   UNL     3       3.876   0.885  -3.272  0.00  0.00    +0.000 HD
ENDBRANCH   1   2
BRANCH   1   4
ATOM      4  C   UNL     3       6.338  -0.002  -2.270  0.00  0.00    +0.000 C 
BRANCH   4   5
ATOM      5  O   UNL     3       6.670  -0.156  -3.619  0.00  0.00    +0.000 OA
ATOM      6  H   UNL     3       7.248  -0.945  -3.585  0.00  0.00    +0.000 HD
ENDBRANCH   4   5
BRANCH   4   7
ATOM      7  C   UNL     3       7.489  -0.381  -0.924  0.00  0.00    +0.000 C 
BRANCH   7   8
ATOM      8  O   UNL     3       8.834  -0.597  -1.200  0.00  0.00    +0.000 OA
ATOM      9  H   UNL     3       8.744  -1.364  -1.781  0.00  0.00    +0.000 HD
ENDBRANCH   7   8
ENDBRANCH   4   7
ENDBRANCH   1   4
BRANCH   1  10
ATOM     10  C   UNL     3       4.119  -2.151  -0.660  0.00  0.00    +0.000 C 
BRANCH  10  11
ATOM     11  O   UNL     3       3.291  -1.895   0.964  0.00  0.00    +0.000 OA
ATOM     12  H   UNL     3       4.045  -1.478   1.541  0.00  0.00    +0.000 HD
ENDBRANCH  10  11
BRANCH  10  13
ATOM     13  C   UNL     3       4.749  -3.489  -1.088  0.00  0.00    +0.000 C 
BRANCH  13  14
ATOM     14  C   UNL     3       6.447  -3.716  -0.753  0.00  0.00    +0.000 C 
ATOM     15  O   UNL     3       6.870  -3.085   0.283  0.00  0.00    +0.000 OA
ATOM     16  O   UNL     3       7.036  -4.482  -1.567  0.00  0.00    +0.000 OA
ENDBRANCH  13  14
BRANCH  13  17
ATOM     17  O   UNL     3       4.246  -3.956  -2.587  0.00  0.00    +0.000 OA
ATOM     18  H   UNL     3       3.837  -3.355  -3.297  0.00  0.00    +0.000 HD
ENDBRANCH  13  17
ENDBRANCH  10  13
ENDBRANCH   1  10
TORSDOF 10
