REMARK  Name = Zinc dibutyldithiocarbamate
REMARK  18 active torsions:
REMARK  status: ('A' for Active; 'I' for Inactive)
REMARK    1  A    between atoms: C_2  and  C_3
REMARK    2  A    between atoms: C_3  and  C_4
REMARK    3  A    between atoms: C_4  and  C_5
REMARK    4  A    between atoms: C_5  and  N_6
REMARK    5  A    between atoms: N_6  and  C_7
REMARK    6  A    between atoms: N_6  and  C_11
REMARK    7  A    between atoms: C_7  and  C_8
REMARK    8  A    between atoms: C_8  and  C_9
REMARK    9  A    between atoms: C_9  and  C_10
REMARK   10  A    between atoms: C_14  and  C_15
REMARK   11  A    between atoms: C_15  and  C_16
REMARK   12  A    between atoms: C_16  and  C_17
REMARK   13  A    between atoms: C_17  and  N_18
REMARK   14  A    between atoms: N_18  and  C_19
REMARK   15  A    between atoms: N_18  and  C_23
REMARK   16  A    between atoms: C_19  and  C_20
REMARK   17  A    between atoms: C_20  and  C_21
REMARK   18  A    between atoms: C_21  and  C_22
REMARK                            x       y       z     vdW  Elec       q    Type
REMARK                         _______ _______ _______ _____ _____    ______ ____
ROOT
ATOM      1 ZN   UNL     1       1.521   0.603  -3.043  0.00  0.00    +0.000 Zn
ENDROOT
TORSDOF 0
REMARK  Name = Zinc dibutyldithiocarbamate
REMARK  18 active torsions:
REMARK  status: ('A' for Active; 'I' for Inactive)
REMARK    1  A    between atoms: C_2  and  C_3
REMARK    2  A    between atoms: C_3  and  C_4
REMARK    3  A    between atoms: C_4  and  C_5
REMARK    4  A    between atoms: C_5  and  N_6
REMARK    5  A    between atoms: N_6  and  C_7
REMARK    6  A    between atoms: N_6  and  C_11
REMARK    7  A    between atoms: C_7  and  C_8
REMARK    8  A    between atoms: C_8  and  C_9
REMARK    9  A    between atoms: C_9  and  C_10
REMARK   10  A    between atoms: C_14  and  C_15
REMARK   11  A    between atoms: C_15  and  C_16
REMARK   12  A    between atoms: C_16  and  C_17
REMARK   13  A    between atoms: C_17  and  N_18
REMARK   14  A    between atoms: N_18  and  C_19
REMARK   15  A    between atoms: N_18  and  C_23
REMARK   16  A    between atoms: C_19  and  C_20
REMARK   17  A    between atoms: C_20  and  C_21
REMARK   18  A    between atoms: C_21  and  C_22
REMARK                            x       y       z     vdW  Elec       q    Type
REMARK                         _______ _______ _______ _____ _____    ______ ____
ROOT
ATOM      1  N   UNL     2       4.945  -2.681  -1.527  0.00  0.00    +0.000 N 
ENDROOT
BRANCH   1   2
ATOM      2  C   UNL     2       6.317  -2.954  -1.447  0.00  0.00    +0.000 C 
ATOM      3  S   UNL     2       7.443  -1.790  -0.926  0.00  0.00    +0.000 SA
ATOM      4  S   UNL     2       6.943  -4.457  -1.981  0.00  0.00    +0.000 S 
ENDBRANCH   1   2
BRANCH   1   5
ATOM      5  C   UNL     2       4.490  -1.330  -1.083  0.00  0.00    +0.000 C 
BRANCH   5   6
ATOM      6  C   UNL     2       2.756  -0.793  -1.416  0.00  0.00    +0.000 C 
BRANCH   6   8
ATOM      7  C   UNL     2      -0.084   0.621  -0.176  0.00  0.00    +0.000 C 
ATOM      8  C   UNL     2       1.635   0.685  -0.639  0.00  0.00    +0.000 C 
ENDBRANCH   6   8
ENDBRANCH   5   6
ENDBRANCH   1   5
BRANCH   1   9
ATOM      9  C   UNL     2       4.051  -3.851  -1.750  0.00  0.00    +0.000 C 
BRANCH   9  10
ATOM     10  C   UNL     2       2.577  -3.622  -1.559  0.00  0.00    +0.000 C 
BRANCH  10  11
ATOM     11  C   UNL     2       1.488  -4.544  -1.991  0.00  0.00    +0.000 C 
ATOM     12  C   UNL     2       0.139  -3.850  -1.710  0.00  0.00    +0.000 C 
ENDBRANCH  10  11
ENDBRANCH   9  10
ENDBRANCH   1   9
TORSDOF 7
REMARK  Name = Zinc dibutyldithiocarbamate
REMARK  18 active torsions:
REMARK  status: ('A' for Active; 'I' for Inactive)
REMARK    1  A    between atoms: C_2  and  C_3
REMARK    2  A    between atoms: C_3  and  C_4
REMARK    3  A    between atoms: C_4  and  C_5
REMARK    4  A    between atoms: C_5  and  N_6
REMARK    5  A    between atoms: N_6  and  C_7
REMARK    6  A    between atoms: N_6  and  C_11
REMARK    7  A    between atoms: C_7  and  C_8
REMARK    8  A    between atoms: C_8  and  C_9
REMARK    9  A    between atoms: C_9  and  C_10
REMARK   10  A    between atoms: C_14  and  C_15
REMARK   11  A    between atoms: C_15  and  C_16
REMARK   12  A    between atoms: C_16  and  C_17
REMARK   13  A    between atoms: C_17  and  N_18
REMARK   14  A    between atoms: N_18  and  C_19
REMARK   15  A    between atoms: N_18  and  C_23
REMARK   16  A    between atoms: C_19  and  C_20
REMARK   17  A    between atoms: C_20  and  C_21
REMARK   18  A    between atoms: C_21  and  C_22
REMARK                            x       y       z     vdW  Elec       q    Type
REMARK                         _______ _______ _______ _____ _____    ______ ____
ROOT
ATOM      1  N   UNL     3       5.241   2.157   2.061  0.00  0.00    +0.000 N 
ENDROOT
BRANCH   1   2
ATOM      2  C   UNL     3       6.578   2.354   2.279  0.00  0.00    +0.000 C 
ATOM      3  S   UNL     3       7.770   1.515   1.366  0.00  0.00    +0.000 SA
ATOM      4  S   UNL     3       7.097   3.463   3.449  0.00  0.00    +0.000 S 
ENDBRANCH   1   2
BRANCH   1   5
ATOM      5  C   UNL     3       4.946   1.032   1.203  0.00  0.00    +0.000 C 
BRANCH   5   6
ATOM      6  C   UNL     3       3.507   0.744   1.384  0.00  0.00    +0.000 C 
BRANCH   6   8
ATOM      7  C   UNL     3       1.412  -1.286   0.684  0.00  0.00    +0.000 C 
ATOM      8  C   UNL     3       3.042  -0.599   0.940  0.00  0.00    +0.000 C 
ENDBRANCH   6   8
ENDBRANCH   5   6
ENDBRANCH   1   5
BRANCH   1   9
ATOM      9  C   UNL     3       4.149   2.901   2.878  0.00  0.00    +0.000 C 
BRANCH   9  10
ATOM     10  C   UNL     3       2.591   2.699   2.649  0.00  0.00    +0.000 C 
BRANCH  10  11
ATOM     11  C   UNL     3       1.529   3.431   3.402  0.00  0.00    +0.000 C 
ATOM     12  C   UNL     3       0.173   2.892   2.894  0.00  0.00    +0.000 C 
ENDBRANCH  10  11
ENDBRANCH   9  10
ENDBRANCH   1   9
TORSDOF 7
