REMARK  Name = Zinc ascorbate
REMARK  10 active torsions:
REMARK  status: ('A' for Active; 'I' for Inactive)
REMARK    1  A    between atoms: C_3  and  C_11
REMARK    2  A    between atoms: C_7  and  O_8
REMARK    3  A    between atoms: C_11  and  O_12
REMARK    4  A    between atoms: C_11  and  C_13
REMARK    5  A    between atoms: C_13  and  O_14
REMARK    6  A    between atoms: C_16  and  C_24
REMARK    7  A    between atoms: C_20  and  O_21
REMARK    8  A    between atoms: C_24  and  O_25
REMARK    9  A    between atoms: C_24  and  C_26
REMARK   10  A    between atoms: C_26  and  O_27
REMARK                            x       y       z     vdW  Elec       q    Type
REMARK                         _______ _______ _______ _____ _____    ______ ____
ROOT
ATOM      1 ZN   UNL     1      -0.420   2.056  -0.718  0.00  0.00    +0.000 Zn
ENDROOT
TORSDOF 0
REMARK  Name = Zinc ascorbate
REMARK  10 active torsions:
REMARK  status: ('A' for Active; 'I' for Inactive)
REMARK    1  A    between atoms: C_3  and  C_11
REMARK    2  A    between atoms: C_7  and  O_8
REMARK    3  A    between atoms: C_11  and  O_12
REMARK    4  A    between atoms: C_11  and  C_13
REMARK    5  A    between atoms: C_13  and  O_14
REMARK    6  A    between atoms: C_16  and  C_24
REMARK    7  A    between atoms: C_20  and  O_21
REMARK    8  A    between atoms: C_24  and  O_25
REMARK    9  A    between atoms: C_24  and  C_26
REMARK   10  A    between atoms: C_26  and  O_27
REMARK                            x       y       z     vdW  Elec       q    Type
REMARK                         _______ _______ _______ _____ _____    ______ ____
ROOT
ATOM      1  C   UNL     2       3.653   0.690   0.264  0.00  0.00    +0.000 C 
ATOM      2  O   UNL     2       4.149  -0.588   0.810  0.00  0.00    +0.000 OA
ATOM      3  C   UNL     2       4.372  -0.394   2.148  0.00  0.00    +0.000 C 
ATOM      4  O   UNL     2       4.327  -1.200   3.054  0.00  0.00    +0.000 OA
ATOM      5  C   UNL     2       4.553   1.070   2.289  0.00  0.00    +0.000 C 
ATOM      6  C   UNL     2       4.125   1.687   1.220  0.00  0.00    +0.000 C 
ATOM      7  O   UNL     2       3.953   2.900   0.835  0.00  0.00    +0.000 OA
ENDROOT
BRANCH   5   8
ATOM      8  O   UNL     2       4.873   1.684   3.470  0.00  0.00    +0.000 OA
ATOM      9  H   UNL     2       4.746   1.031   4.166  0.00  0.00    +0.000 HD
ENDBRANCH   5   8
BRANCH   1  10
ATOM     10  C   UNL     2       3.747   1.222  -1.300  0.00  0.00    +0.000 C 
BRANCH  10  11
ATOM     11  O   UNL     2       3.003   2.443  -1.594  0.00  0.00    +0.000 OA
ATOM     12  H   UNL     2       3.296   3.015  -0.838  0.00  0.00    +0.000 HD
ENDBRANCH  10  11
BRANCH  10  13
ATOM     13  C   UNL     2       5.230   1.019  -1.582  0.00  0.00    +0.000 C 
BRANCH  13  14
ATOM     14  O   UNL     2       5.579   0.957  -2.954  0.00  0.00    +0.000 OA
ATOM     15  H   UNL     2       5.162   0.133  -3.285  0.00  0.00    +0.000 HD
ENDBRANCH  13  14
ENDBRANCH  10  13
ENDBRANCH   1  10
TORSDOF 5
REMARK  Name = Zinc ascorbate
REMARK  10 active torsions:
REMARK  status: ('A' for Active; 'I' for Inactive)
REMARK    1  A    between atoms: C_3  and  C_11
REMARK    2  A    between atoms: C_7  and  O_8
REMARK    3  A    between atoms: C_11  and  O_12
REMARK    4  A    between atoms: C_11  and  C_13
REMARK    5  A    between atoms: C_13  and  O_14
REMARK    6  A    between atoms: C_16  and  C_24
REMARK    7  A    between atoms: C_20  and  O_21
REMARK    8  A    between atoms: C_24  and  O_25
REMARK    9  A    between atoms: C_24  and  C_26
REMARK   10  A    between atoms: C_26  and  O_27
REMARK                            x       y       z     vdW  Elec       q    Type
REMARK                         _______ _______ _______ _____ _____    ______ ____
ROOT
ATOM      1  C   UNL     3       0.792  -0.520   0.214  0.00  0.00    +0.000 C 
ATOM      2  O   UNL     3       1.229  -1.599   1.015  0.00  0.00    +0.000 OA
ATOM      3  C   UNL     3       1.405  -1.188   2.316  0.00  0.00    +0.000 C 
ATOM      4  O   UNL     3       1.618  -1.944   3.244  0.00  0.00    +0.000 OA
ATOM      5  C   UNL     3       1.259   0.281   2.418  0.00  0.00    +0.000 C 
ATOM      6  C   UNL     3       0.794   0.733   1.236  0.00  0.00    +0.000 C 
ATOM      7  O   UNL     3       0.603   1.902   0.813  0.00  0.00    +0.000 OA
ENDROOT
BRANCH   5   8
ATOM      8  O   UNL     3       1.742   1.068   3.451  0.00  0.00    +0.000 OA
ATOM      9  H   UNL     3       2.598   0.704   3.756  0.00  0.00    +0.000 HD
ENDBRANCH   5   8
BRANCH   1  10
ATOM     10  C   UNL     3       1.464  -0.538  -1.335  0.00  0.00    +0.000 C 
BRANCH  10  11
ATOM     11  O   UNL     3       0.928   0.780  -1.901  0.00  0.00    +0.000 OA
ATOM     12  H   UNL     3       1.641   1.478  -1.868  0.00  0.00    +0.000 HD
ENDBRANCH  10  11
BRANCH  10  13
ATOM     13  C   UNL     3       3.038  -1.270  -1.725  0.00  0.00    +0.000 C 
BRANCH  13  14
ATOM     14  O   UNL     3       3.686  -1.032  -3.007  0.00  0.00    +0.000 OA
ATOM     15  H   UNL     3       3.081  -0.966  -3.754  0.00  0.00    +0.000 HD
ENDBRANCH  13  14
ENDBRANCH  10  13
ENDBRANCH   1  10
TORSDOF 5
