REMARK  Name = Zinc
REMARK  0 active torsions:
REMARK  status: ('A' for Active; 'I' for Inactive)
REMARK                            x       y       z     vdW  Elec       q    Type
REMARK                         _______ _______ _______ _____ _____    ______ ____
ROOT
ATOM      1 ZN   UNL     1       0.976   0.004  -0.097  0.00  0.00    +0.000 Zn
ENDROOT
TORSDOF 0
