REMARK  Name = Zinc oxide
REMARK  0 active torsions:
REMARK  status: ('A' for Active; 'I' for Inactive)
REMARK                            x       y       z     vdW  Elec       q    Type
REMARK                         _______ _______ _______ _____ _____    ______ ____
ROOT
ATOM      1  O   UNL     1       0.977  -0.038  -0.090  0.00  0.00    +0.000 OA
ATOM      2 ZN   UNL     1       2.659  -0.038  -0.090  0.00  0.00    +0.000 Zn
ENDROOT
TORSDOF 0
