REMARK  Name = Zinc phenolsulfonate
REMARK  4 active torsions:
REMARK  status: ('A' for Active; 'I' for Inactive)
REMARK    1  A    between atoms: O_2  and  C_3
REMARK    2  A    between atoms: C_6  and  S_9
REMARK    3  A    between atoms: O_13  and  C_14
REMARK    4  A    between atoms: C_17  and  S_20
REMARK                            x       y       z     vdW  Elec       q    Type
REMARK                         _______ _______ _______ _____ _____    ______ ____
ROOT
ATOM      1 ZN   UNL     1      -5.646  -0.267  -1.835  0.00  0.00    +0.000 Zn
ENDROOT
TORSDOF 0
REMARK  Name = Zinc phenolsulfonate
REMARK  4 active torsions:
REMARK  status: ('A' for Active; 'I' for Inactive)
REMARK    1  A    between atoms: O_2  and  C_3
REMARK    2  A    between atoms: C_6  and  S_9
REMARK    3  A    between atoms: O_13  and  C_14
REMARK    4  A    between atoms: C_17  and  S_20
REMARK                            x       y       z     vdW  Elec       q    Type
REMARK                         _______ _______ _______ _____ _____    ______ ____
ROOT
ATOM      1  C   UNL     2       0.885  -0.025  -0.001  0.00  0.00    +0.000 A 
ATOM      2  C   UNL     2       0.224   1.180   0.016  0.00  0.00    +0.000 A 
ATOM      3  C   UNL     2      -1.157   1.212   0.000  0.00  0.00    +0.000 A 
ATOM      4  C   UNL     2      -1.877   0.042  -0.014  0.00  0.00    +0.000 A 
ATOM      5  C   UNL     2      -1.226  -1.172  -0.001  0.00  0.00    +0.000 A 
ATOM      6  C   UNL     2       0.171  -1.241   0.015  0.00  0.00    +0.000 A 
ENDROOT
BRANCH   4   7
ATOM      7  S   UNL     2      -3.686   0.096  -0.050  0.00  0.00    +0.000 S 
ATOM      8  O   UNL     2      -4.259   0.919   1.335  0.00  0.00    +0.000 OA
ATOM      9  O   UNL     2      -4.150   0.832  -1.309  0.00  0.00    +0.000 OA
ATOM     10  O   UNL     2      -4.239  -1.331  -0.060  0.00  0.00    +0.000 OA
ENDBRANCH   4   7
BRANCH   1  11
ATOM     11  O   UNL     2       2.237   0.005  -0.011  0.00  0.00    +0.000 OA
ATOM     12  H   UNL     2       2.687   0.827  -0.022  0.00  0.00    +0.000 HD
ENDBRANCH   1  11
TORSDOF 2
REMARK  Name = Zinc phenolsulfonate
REMARK  4 active torsions:
REMARK  status: ('A' for Active; 'I' for Inactive)
REMARK    1  A    between atoms: O_2  and  C_3
REMARK    2  A    between atoms: C_6  and  S_9
REMARK    3  A    between atoms: O_13  and  C_14
REMARK    4  A    between atoms: C_17  and  S_20
REMARK                            x       y       z     vdW  Elec       q    Type
REMARK                         _______ _______ _______ _____ _____    ______ ____
ROOT
ATOM      1  C   UNL     3       0.885  -0.025  -0.001  0.00  0.00    +0.000 A 
ATOM      2  C   UNL     3       0.224   1.180   0.016  0.00  0.00    +0.000 A 
ATOM      3  C   UNL     3      -1.157   1.212   0.000  0.00  0.00    +0.000 A 
ATOM      4  C   UNL     3      -1.877   0.042  -0.014  0.00  0.00    +0.000 A 
ATOM      5  C   UNL     3      -1.226  -1.172  -0.001  0.00  0.00    +0.000 A 
ATOM      6  C   UNL     3       0.171  -1.241   0.015  0.00  0.00    +0.000 A 
ENDROOT
BRANCH   4   7
ATOM      7  S   UNL     3      -3.686   0.096  -0.050  0.00  0.00    +0.000 S 
ATOM      8  O   UNL     3      -4.259   0.919   1.335  0.00  0.00    +0.000 OA
ATOM      9  O   UNL     3      -4.150   0.832  -1.309  0.00  0.00    +0.000 OA
ATOM     10  O   UNL     3      -4.239  -1.331  -0.060  0.00  0.00    +0.000 OA
ENDBRANCH   4   7
BRANCH   1  11
ATOM     11  O   UNL     3       2.237   0.005  -0.011  0.00  0.00    +0.000 OA
ATOM     12  H   UNL     3       2.687   0.827  -0.022  0.00  0.00    +0.000 HD
ENDBRANCH   1  11
TORSDOF 2
