REMARK  Name = Zinc acetate
REMARK  2 active torsions:
REMARK  status: ('A' for Active; 'I' for Inactive)
REMARK    1  A    between atoms: C_2  and  C_3
REMARK    2  A    between atoms: C_6  and  C_7
REMARK                            x       y       z     vdW  Elec       q    Type
REMARK                         _______ _______ _______ _____ _____    ______ ____
ROOT
ATOM      1 ZN   UNL     1       1.826  -2.714   0.361  0.00  0.00    +0.000 Zn
ENDROOT
TORSDOF 0
REMARK  Name = Zinc acetate
REMARK  2 active torsions:
REMARK  status: ('A' for Active; 'I' for Inactive)
REMARK    1  A    between atoms: C_2  and  C_3
REMARK    2  A    between atoms: C_6  and  C_7
REMARK                            x       y       z     vdW  Elec       q    Type
REMARK                         _______ _______ _______ _____ _____    ______ ____
ROOT
ATOM      1  C   UNL     2       0.983   0.468  -1.309  0.00  0.00    +0.000 C 
ATOM      2  C   UNL     2       2.624   0.688  -1.479  0.00  0.00    +0.000 C 
ATOM      3  O   UNL     2       2.966   0.863  -2.652  0.00  0.00    +0.000 OA
ATOM      4  O   UNL     2       3.424   0.498  -0.503  0.00  0.00    +0.000 OA
ENDROOT
TORSDOF 0
REMARK  Name = Zinc acetate
REMARK  2 active torsions:
REMARK  status: ('A' for Active; 'I' for Inactive)
REMARK    1  A    between atoms: C_2  and  C_3
REMARK    2  A    between atoms: C_6  and  C_7
REMARK                            x       y       z     vdW  Elec       q    Type
REMARK                         _______ _______ _______ _____ _____    ______ ____
ROOT
ATOM      1  C   UNL     3       1.205   0.234   1.315  0.00  0.00    +0.000 C 
ATOM      2  C   UNL     3       2.590  -0.258   1.561  0.00  0.00    +0.000 C 
ATOM      3  O   UNL     3       3.297   0.418   2.362  0.00  0.00    +0.000 OA
ATOM      4  O   UNL     3       2.757  -1.436   1.082  0.00  0.00    +0.000 OA
ENDROOT
TORSDOF 0
