REMARK  Name = Ziprasidone
REMARK  3 active torsions:
REMARK  status: ('A' for Active; 'I' for Inactive)
REMARK    1  A    between atoms: C_3  and  C_4
REMARK    2  A    between atoms: C_4  and  C_5
REMARK    3  A    between atoms: C_5  and  N_6
REMARK                            x       y       z     vdW  Elec       q    Type
REMARK                         _______ _______ _______ _____ _____    ______ ____
ROOT
ATOM      1  N   UNL     1       2.857   4.960  -0.052  0.00  0.00    +0.000 NA
ATOM      2  C   UNL     1       1.732   4.267   0.522  0.00  0.00    +0.000 C 
ATOM      3  C   UNL     1       2.186   3.763   2.240  0.00  0.00    +0.000 C 
ATOM      4  N   UNL     1       2.261   5.020   3.433  0.00  0.00    +0.000 N 
ATOM      5  C   UNL     1       2.951   6.036   2.489  0.00  0.00    +0.000 C 
ATOM      6  C   UNL     1       2.701   6.103   0.866  0.00  0.00    +0.000 C 
ATOM      7  C   UNL     1       1.418   5.398   4.874  0.00  0.00    +0.000 A 
ATOM      8  N   UNL     1       0.584   6.126   4.123  0.00  0.00    +0.000 NA
ATOM      9  S   UNL     1      -0.813   5.602   4.878  0.00  0.00    +0.000 S 
ATOM     10  C   UNL     1      -0.323   6.806   5.969  0.00  0.00    +0.000 A 
ATOM     11  C   UNL     1      -0.547   8.247   5.859  0.00  0.00    +0.000 A 
ATOM     12  C   UNL     1      -0.425   9.175   6.869  0.00  0.00    +0.000 A 
ATOM     13  C   UNL     1      -0.154   8.566   8.032  0.00  0.00    +0.000 A 
ATOM     14  C   UNL     1       0.423   7.154   7.880  0.00  0.00    +0.000 A 
ATOM     15  C   UNL     1       0.831   6.145   6.548  0.00  0.00    +0.000 A 
ENDROOT
BRANCH   1  16
ATOM     16  C   UNL     1       3.782   3.772  -0.163  0.00  0.00    +0.000 C 
BRANCH  16  17
ATOM     17  C   UNL     1       2.857   2.319  -0.193  0.00  0.00    +0.000 C 
BRANCH  17  20
ATOM     18 CL   UNL     1       1.033  -0.161   0.018  0.00  0.00    +0.000 Cl
ATOM     19  C   UNL     1       2.768  -0.147   0.021  0.00  0.00    +0.000 A 
ATOM     20  C   UNL     1       3.519   1.061  -0.021  0.00  0.00    +0.000 A 
ATOM     21  C   UNL     1       4.884   1.141  -0.017  0.00  0.00    +0.000 A 
ATOM     22  C   UNL     1       5.493  -0.072  -0.250  0.00  0.00    +0.000 A 
ATOM     23  C   UNL     1       7.238  -0.877  -0.673  0.00  0.00    +0.000 C 
ATOM     24  C   UNL     1       6.883   0.356  -0.639  0.00  0.00    +0.000 C 
ATOM     25  O   UNL     1       7.945   1.026  -0.774  0.00  0.00    +0.000 OA
ATOM     26  N   UNL     1       6.033  -1.326  -0.515  0.00  0.00    +0.000 N 
ATOM     27  C   UNL     1       4.753  -1.144  -0.236  0.00  0.00    +0.000 A 
ATOM     28  C   UNL     1       3.452  -1.331   0.039  0.00  0.00    +0.000 A 
ATOM     29  H   UNL     1       6.271  -2.350  -0.603  0.00  0.00    +0.000 HD
ENDBRANCH  17  20
ENDBRANCH  16  17
ENDBRANCH   1  16
TORSDOF 3
