REMARK  Name = Zofenopril
REMARK  10 active torsions:
REMARK  status: ('A' for Active; 'I' for Inactive)
REMARK    1  A    between atoms: C_1  and  C_2
REMARK    2  A    between atoms: C_2  and  C_3
REMARK    3  A    between atoms: C_2  and  C_13
REMARK    4  A    between atoms: C_3  and  S_4
REMARK    5  A    between atoms: S_4  and  C_5
REMARK    6  A    between atoms: C_5  and  C_7
REMARK    7  A    between atoms: C_17  and  S_23
REMARK    8  A    between atoms: C_19  and  C_20
REMARK    9  A    between atoms: C_20  and  O_21
REMARK   10  A    between atoms: S_23  and  C_24
REMARK                            x       y       z     vdW  Elec       q    Type
REMARK                         _______ _______ _______ _____ _____    ______ ____
ROOT
ATOM      1  C   UNL     1       3.080  -1.478   0.523  0.00  0.00    +0.000 C 
ATOM      2  O   UNL     1       2.367  -2.450   0.780  0.00  0.00    +0.000 OA
ATOM      3  N   UNL     1       4.442  -1.677   0.559  0.00  0.00    +0.000 N 
ATOM      4  C   UNL     1       5.468  -0.841   1.138  0.00  0.00    +0.000 C 
ATOM      5  C   UNL     1       6.663  -1.044   0.236  0.00  0.00    +0.000 C 
ATOM      6  C   UNL     1       6.590  -2.565   0.011  0.00  0.00    +0.000 C 
ATOM      7  C   UNL     1       5.075  -2.920   0.079  0.00  0.00    +0.000 C 
ENDROOT
BRANCH   1   9
ATOM      8  C   UNL     1       2.850   1.045   1.014  0.00  0.00    +0.000 C 
ATOM      9  C   UNL     1       2.484  -0.113   0.089  0.00  0.00    +0.000 C 
BRANCH   9  10
ATOM     10  C   UNL     1       0.926  -0.157  -0.012  0.00  0.00    +0.000 C 
BRANCH  10  11
ATOM     11  S   UNL     1       0.351  -1.299  -1.320  0.00  0.00    +0.000 S 
BRANCH  11  12
ATOM     12  C   UNL     1      -1.402  -1.266  -1.150  0.00  0.00    +0.000 C 
ATOM     13  O   UNL     1      -1.983  -0.454  -0.430  0.00  0.00    +0.000 OA
BRANCH  12  14
ATOM     14  C   UNL     1      -2.163  -2.243  -1.982  0.00  0.00    +0.000 A 
ATOM     15  C   UNL     1      -3.318  -1.827  -2.660  0.00  0.00    +0.000 A 
ATOM     16  C   UNL     1      -4.106  -2.757  -3.351  0.00  0.00    +0.000 A 
ATOM     17  C   UNL     1      -3.713  -4.093  -3.420  0.00  0.00    +0.000 A 
ATOM     18  C   UNL     1      -2.555  -4.511  -2.766  0.00  0.00    +0.000 A 
ATOM     19  C   UNL     1      -1.786  -3.593  -2.042  0.00  0.00    +0.000 A 
ENDBRANCH  12  14
ENDBRANCH  11  12
ENDBRANCH  10  11
ENDBRANCH   9  10
ENDBRANCH   1   9
BRANCH   7  20
ATOM     20  C   UNL     1       4.908  -4.166   0.969  0.00  0.00    +0.000 C 
ATOM     21  O   UNL     1       5.425  -5.246   0.703  0.00  0.00    +0.000 OA
BRANCH  20  22
ATOM     22  O   UNL     1       4.204  -3.979   2.107  0.00  0.00    +0.000 OA
ATOM     23  H   UNL     1       3.686  -3.146   2.071  0.00  0.00    +0.000 HD
ENDBRANCH  20  22
ENDBRANCH   7  20
BRANCH   5  24
ATOM     24  S   UNL     1       8.258  -0.512   0.958  0.00  0.00    +0.000 S 
BRANCH  24  25
ATOM     25  C   UNL     1       8.078   1.259   1.197  0.00  0.00    +0.000 A 
ATOM     26  C   UNL     1       9.064   2.106   0.675  0.00  0.00    +0.000 A 
ATOM     27  C   UNL     1       9.105   3.461   1.030  0.00  0.00    +0.000 A 
ATOM     28  C   UNL     1       8.111   4.006   1.839  0.00  0.00    +0.000 A 
ATOM     29  C   UNL     1       7.111   3.183   2.344  0.00  0.00    +0.000 A 
ATOM     30  C   UNL     1       7.118   1.815   2.052  0.00  0.00    +0.000 A 
ENDBRANCH  24  25
ENDBRANCH   5  24
TORSDOF 9
