REMARK  Name = Zoledronic acid
REMARK  9 active torsions:
REMARK  status: ('A' for Active; 'I' for Inactive)
REMARK    1  A    between atoms: O_1  and  C_2
REMARK    2  A    between atoms: C_2  and  C_3
REMARK    3  A    between atoms: C_2  and  P_9
REMARK    4  A    between atoms: C_2  and  P_13
REMARK    5  A    between atoms: C_3  and  N_4
REMARK    6  A    between atoms: P_9  and  O_10
REMARK    7  A    between atoms: P_9  and  O_11
REMARK    8  A    between atoms: P_13  and  O_14
REMARK    9  A    between atoms: P_13  and  O_15
REMARK                            x       y       z     vdW  Elec       q    Type
REMARK                         _______ _______ _______ _____ _____    ______ ____
ROOT
ATOM      1  C   UNL     1       2.364   0.082  -0.015  0.00  0.00    +0.000 C 
ENDROOT
BRANCH   1   2
ATOM      2  O   UNL     1       0.929   0.260  -0.049  0.00  0.00    +0.000 OA
ATOM      3  H   UNL     1       0.545  -0.637   0.064  0.00  0.00    +0.000 HD
ENDBRANCH   1   2
BRANCH   1   4
ATOM      4  P   UNL     1       2.974  -1.445  -0.819  0.00  0.00    +0.000 P 
ATOM      5  O   UNL     1       3.491  -2.737  -1.500  0.00  0.00    +0.000 OA
BRANCH   4   6
ATOM      6  O   UNL     1       1.613  -2.132  -0.144  0.00  0.00    +0.000 OA
ATOM      7  H   UNL     1       1.692  -2.469   0.768  0.00  0.00    +0.000 HD
ENDBRANCH   4   6
BRANCH   4   8
ATOM      8  O   UNL     1       2.207  -0.987  -2.200  0.00  0.00    +0.000 OA
ATOM      9  H   UNL     1       1.659  -0.179  -2.292  0.00  0.00    +0.000 HD
ENDBRANCH   4   8
ENDBRANCH   1   4
BRANCH   1  10
ATOM     10  P   UNL     1       3.116   1.519  -0.917  0.00  0.00    +0.000 P 
ATOM     11  O   UNL     1       2.993   1.561  -2.404  0.00  0.00    +0.000 OA
BRANCH  10  12
ATOM     12  O   UNL     1       2.455   2.794  -0.226  0.00  0.00    +0.000 OA
ATOM     13  H   UNL     1       1.609   2.616   0.249  0.00  0.00    +0.000 HD
ENDBRANCH  10  12
BRANCH  10  14
ATOM     14  O   UNL     1       4.629   1.402  -0.396  0.00  0.00    +0.000 OA
ATOM     15  H   UNL     1       5.175   0.821  -0.972  0.00  0.00    +0.000 HD
ENDBRANCH  10  14
ENDBRANCH   1  10
BRANCH   1  16
ATOM     16  C   UNL     1       2.893   0.135   1.479  0.00  0.00    +0.000 C 
BRANCH  16  17
ATOM     17  N   UNL     1       2.584   1.319   2.278  0.00  0.00    +0.000 N 
ATOM     18  C   UNL     1       1.609   1.417   3.236  0.00  0.00    +0.000 A 
ATOM     19  C   UNL     1       1.570   2.749   3.583  0.00  0.00    +0.000 A 
ATOM     20  N   UNL     1       2.573   3.432   2.961  0.00  0.00    +0.000 NA
ATOM     21  C   UNL     1       3.228   2.530   2.265  0.00  0.00    +0.000 A 
ENDBRANCH  16  17
ENDBRANCH   1  16
TORSDOF 9
