REMARK  Name = Zolmitriptan
REMARK  7 active torsions:
REMARK  status: ('A' for Active; 'I' for Inactive)
REMARK    1  A    between atoms: C_1  and  N_2
REMARK    2  A    between atoms: N_2  and  C_3
REMARK    3  A    between atoms: N_2  and  C_4
REMARK    4  A    between atoms: C_4  and  C_5
REMARK    5  A    between atoms: C_5  and  C_6
REMARK    6  A    between atoms: C_12  and  C_13
REMARK    7  A    between atoms: C_13  and  C_14
REMARK                            x       y       z     vdW  Elec       q    Type
REMARK                         _______ _______ _______ _____ _____    ______ ____
ROOT
ATOM      1  C   UNL     1       5.045  -1.922  -2.065  0.00  0.00    +0.000 A 
ATOM      2  C   UNL     1       5.645  -1.695  -3.284  0.00  0.00    +0.000 A 
ATOM      3  N   UNL     1       5.799  -2.900  -3.904  0.00  0.00    +0.000 N 
ATOM      4  C   UNL     1       5.291  -3.891  -3.111  0.00  0.00    +0.000 A 
ATOM      5  C   UNL     1       5.184  -5.232  -3.368  0.00  0.00    +0.000 A 
ATOM      6  C   UNL     1       4.599  -5.976  -2.362  0.00  0.00    +0.000 A 
ATOM      7  C   UNL     1       4.111  -5.476  -1.146  0.00  0.00    +0.000 A 
ATOM      8  C   UNL     1       4.273  -4.116  -0.913  0.00  0.00    +0.000 A 
ATOM      9  C   UNL     1       4.850  -3.318  -1.925  0.00  0.00    +0.000 A 
ATOM     10  H   UNL     1       6.184  -3.057  -4.825  0.00  0.00    +0.000 HD
ENDROOT
BRANCH   1  11
ATOM     11  C   UNL     1       4.589  -0.926  -1.072  0.00  0.00    +0.000 C 
BRANCH  11  12
ATOM     12  C   UNL     1       3.051  -0.903  -1.003  0.00  0.00    +0.000 C 
BRANCH  12  14
ATOM     13  C   UNL     1       1.076   0.038  -0.040  0.00  0.00    +0.000 C 
ATOM     14  N   UNL     1       2.540   0.050  -0.007  0.00  0.00    +0.000 NA
ATOM     15  C   UNL     1       3.003  -0.299   1.338  0.00  0.00    +0.000 C 
ENDBRANCH  12  14
ENDBRANCH  11  12
ENDBRANCH   1  11
BRANCH   7  16
ATOM     16  C   UNL     1       3.399  -6.330  -0.115  0.00  0.00    +0.000 C 
BRANCH  16  17
ATOM     17  C   UNL     1       3.251  -7.818  -0.471  0.00  0.00    +0.000 C 
ATOM     18  C   UNL     1       2.550  -8.106  -1.796  0.00  0.00    +0.000 C 
ATOM     19  O   UNL     1       3.411  -9.050  -2.471  0.00  0.00    +0.000 OA
ATOM     20  C   UNL     1       4.601  -9.130  -1.804  0.00  0.00    +0.000 C 
ATOM     21  O   UNL     1       5.626  -9.622  -2.260  0.00  0.00    +0.000 OA
ATOM     22  N   UNL     1       4.515  -8.479  -0.611  0.00  0.00    +0.000 N 
ATOM     23  H   UNL     1       5.372  -8.196  -0.147  0.00  0.00    +0.000 HD
ENDBRANCH  16  17
ENDBRANCH   7  16
TORSDOF 5
