REMARK  Name = Zolpidem
REMARK  7 active torsions:
REMARK  status: ('A' for Active; 'I' for Inactive)
REMARK    1  A    between atoms: C_1  and  N_2
REMARK    2  A    between atoms: N_2  and  C_3
REMARK    3  A    between atoms: C_4  and  C_6
REMARK    4  A    between atoms: C_6  and  C_7
REMARK    5  A    between atoms: C_8  and  C_17
REMARK    6  A    between atoms: C_13  and  C_14
REMARK    7  A    between atoms: C_20  and  C_21
REMARK                            x       y       z     vdW  Elec       q    Type
REMARK                         _______ _______ _______ _____ _____    ______ ____
ROOT
ATOM      1  C   UNL     1       5.095  -1.395  -2.289  0.00  0.00    +0.000 A 
ATOM      2  C   UNL     1       4.996  -2.772  -2.425  0.00  0.00    +0.000 A 
ATOM      3  N   UNL     1       5.473  -3.184  -3.648  0.00  0.00    +0.000 NA
ATOM      4  C   UNL     1       5.827  -2.083  -4.278  0.00  0.00    +0.000 A 
ATOM      5  C   UNL     1       6.349  -1.880  -5.589  0.00  0.00    +0.000 A 
ATOM      6  C   UNL     1       6.716  -0.647  -5.988  0.00  0.00    +0.000 A 
ATOM      7  C   UNL     1       6.593   0.510  -5.107  0.00  0.00    +0.000 A 
ATOM      8  C   UNL     1       7.043   1.847  -5.615  0.00  0.00    +0.000 C 
ATOM      9  C   UNL     1       6.069   0.324  -3.878  0.00  0.00    +0.000 A 
ATOM     10  N   UNL     1       5.670  -0.955  -3.470  0.00  0.00    +0.000 N 
ENDROOT
BRANCH   2  11
ATOM     11  C   UNL     1       4.522  -3.689  -1.397  0.00  0.00    +0.000 A 
ATOM     12  C   UNL     1       5.320  -4.771  -1.032  0.00  0.00    +0.000 A 
ATOM     13  C   UNL     1       4.859  -5.704  -0.097  0.00  0.00    +0.000 A 
ATOM     14  C   UNL     1       3.643  -5.511   0.568  0.00  0.00    +0.000 A 
ATOM     15  C   UNL     1       3.089  -6.544   1.499  0.00  0.00    +0.000 C 
ATOM     16  C   UNL     1       2.902  -4.365   0.301  0.00  0.00    +0.000 A 
ATOM     17  C   UNL     1       3.299  -3.520  -0.732  0.00  0.00    +0.000 A 
ENDBRANCH   2  11
BRANCH   1  18
ATOM     18  C   UNL     1       4.636  -0.520  -1.166  0.00  0.00    +0.000 C 
BRANCH  18  22
ATOM     19  C   UNL     1       1.010   0.083  -0.063  0.00  0.00    +0.000 C 
ATOM     20  N   UNL     1       2.465   0.110  -0.084  0.00  0.00    +0.000 N 
ATOM     21  C   UNL     1       3.169   0.760   1.003  0.00  0.00    +0.000 C 
ATOM     22  C   UNL     1       3.104  -0.397  -1.207  0.00  0.00    +0.000 C 
ATOM     23  O   UNL     1       2.439  -0.771  -2.184  0.00  0.00    +0.000 OA
ENDBRANCH  18  22
ENDBRANCH   1  18
TORSDOF 3
