REMARK  Name = Zonisamide
REMARK  3 active torsions:
REMARK  status: ('A' for Active; 'I' for Inactive)
REMARK    1  A    between atoms: N_1  and  S_2
REMARK    2  A    between atoms: S_2  and  C_5
REMARK    3  A    between atoms: C_5  and  C_6
REMARK                            x       y       z     vdW  Elec       q    Type
REMARK                         _______ _______ _______ _____ _____    ______ ____
ROOT
ATOM      1  C   UNL     1       4.886   1.651   0.395  0.00  0.00    +0.000 A 
ATOM      2  N   UNL     1       5.625   1.700  -0.723  0.00  0.00    +0.000 NA
ATOM      3  O   UNL     1       6.948   1.680  -0.300  0.00  0.00    +0.000 OA
ATOM      4  C   UNL     1       6.991   1.660   1.060  0.00  0.00    +0.000 A 
ATOM      5  C   UNL     1       8.134   1.645   1.855  0.00  0.00    +0.000 A 
ATOM      6  C   UNL     1       7.921   1.638   3.239  0.00  0.00    +0.000 A 
ATOM      7  C   UNL     1       6.629   1.651   3.775  0.00  0.00    +0.000 A 
ATOM      8  C   UNL     1       5.502   1.659   2.944  0.00  0.00    +0.000 A 
ATOM      9  C   UNL     1       5.700   1.660   1.555  0.00  0.00    +0.000 A 
ENDROOT
BRANCH   1  10
ATOM     10  C   UNL     1       3.405   1.606   0.333  0.00  0.00    +0.000 C 
BRANCH  10  11
ATOM     11  S   UNL     1       2.850  -0.087   0.059  0.00  0.00    +0.000 S 
ATOM     12  O   UNL     1       3.179  -0.905   1.208  0.00  0.00    +0.000 OA
ATOM     13  O   UNL     1       3.138  -0.510  -1.289  0.00  0.00    +0.000 OA
BRANCH  11  14
ATOM     14  N   UNL     1       1.165   0.049   0.089  0.00  0.00    +0.000 NA
ATOM     15  H   UNL     1       0.786  -0.905   0.061  0.00  0.00    +0.000 HD
ATOM     16  H   UNL     1       0.812   0.569  -0.716  0.00  0.00    +0.000 HD
ENDBRANCH  11  14
ENDBRANCH  10  11
ENDBRANCH   1  10
TORSDOF 3
