REMARK  Name = Zopiclone
REMARK  3 active torsions:
REMARK  status: ('A' for Active; 'I' for Inactive)
REMARK    1  A    between atoms: C_1  and  N_2
REMARK    2  A    between atoms: C_8  and  O_10
REMARK    3  A    between atoms: O_10  and  C_11
REMARK                            x       y       z     vdW  Elec       q    Type
REMARK                         _______ _______ _______ _____ _____    ______ ____
ROOT
ATOM      1  C   UNL     1      -4.951  -1.312   1.596  0.00  0.00    +0.000 C 
ATOM      2  N   UNL     1      -5.072  -2.422   2.560  0.00  0.00    +0.000 N 
ATOM      3  C   UNL     1      -5.385  -1.909   3.847  0.00  0.00    +0.000 C 
ATOM      4  O   UNL     1      -5.606  -2.536   4.869  0.00  0.00    +0.000 OA
ATOM      5  C   UNL     1      -5.419  -0.404   3.734  0.00  0.00    +0.000 A 
ATOM      6  N   UNL     1      -5.509   0.573   4.677  0.00  0.00    +0.000 NA
ATOM      7  C   UNL     1      -5.474   1.855   4.163  0.00  0.00    +0.000 A 
ATOM      8  C   UNL     1      -5.471   2.127   2.804  0.00  0.00    +0.000 A 
ATOM      9  N   UNL     1      -5.576   1.132   1.908  0.00  0.00    +0.000 NA
ATOM     10  C   UNL     1      -5.383  -0.112   2.402  0.00  0.00    +0.000 A 
ATOM     11  C   UNL     1      -5.026  -3.792   2.110  0.00  0.00    +0.000 A 
ATOM     12  N   UNL     1      -3.900  -4.211   1.472  0.00  0.00    +0.000 NA
ATOM     13  C   UNL     1      -3.853  -5.486   0.954  0.00  0.00    +0.000 A 
ATOM     14  C   UNL     1      -4.937  -6.334   0.859  0.00  0.00    +0.000 A 
ATOM     15 CL   UNL     1      -4.807  -7.909   0.177  0.00  0.00    +0.000 Cl
ATOM     16  C   UNL     1      -6.124  -5.873   1.398  0.00  0.00    +0.000 A 
ATOM     17  C   UNL     1      -6.136  -4.655   2.137  0.00  0.00    +0.000 A 
ENDROOT
BRANCH   1  18
ATOM     18  O   UNL     1      -3.599  -1.229   1.054  0.00  0.00    +0.000 OA
BRANCH  18  26
ATOM     19  C   UNL     1       2.459  -0.008   0.055  0.00  0.00    +0.000 C 
ATOM     20  N   UNL     1       1.046  -0.028  -0.298  0.00  0.00    +0.000 NA
ATOM     21  C   UNL     1       0.366   1.168   0.234  0.00  0.00    +0.000 C 
ATOM     22  C   UNL     1      -1.108   1.171  -0.181  0.00  0.00    +0.000 C 
ATOM     23  N   UNL     1      -1.774  -0.092   0.184  0.00  0.00    +0.000 N 
ATOM     24  C   UNL     1      -1.086  -1.311  -0.189  0.00  0.00    +0.000 C 
ATOM     25  C   UNL     1       0.383  -1.234   0.249  0.00  0.00    +0.000 C 
ATOM     26  C   UNL     1      -3.043  -0.037   0.688  0.00  0.00    +0.000 C 
ATOM     27  O   UNL     1      -3.546   1.078   0.790  0.00  0.00    +0.000 OA
ENDBRANCH  18  26
ENDBRANCH   1  18
TORSDOF 2
