REMARK  Name = Zotepine
REMARK  6 active torsions:
REMARK  status: ('A' for Active; 'I' for Inactive)
REMARK    1  A    between atoms: C_1  and  N_2
REMARK    2  A    between atoms: N_2  and  C_3
REMARK    3  A    between atoms: N_2  and  C_4
REMARK    4  A    between atoms: C_4  and  C_5
REMARK    5  A    between atoms: C_5  and  O_6
REMARK    6  A    between atoms: O_6  and  C_7
REMARK                            x       y       z     vdW  Elec       q    Type
REMARK                         _______ _______ _______ _____ _____    ______ ____
ROOT
ATOM      1  C   UNL     1       6.290   2.382   1.714  0.00  0.00    +0.000 C 
ATOM      2  C   UNL     1       6.766   2.702   2.929  0.00  0.00    +0.000 C 
ATOM      3  C   UNL     1       8.173   2.945   3.315  0.00  0.00    +0.000 A 
ATOM      4  C   UNL     1       8.459   3.996   4.197  0.00  0.00    +0.000 A 
ATOM      5  C   UNL     1       9.779   4.279   4.566  0.00  0.00    +0.000 A 
ATOM      6  C   UNL     1      10.832   3.536   4.038  0.00  0.00    +0.000 A 
ATOM      7  C   UNL     1      10.563   2.474   3.185  0.00  0.00    +0.000 A 
ATOM      8  C   UNL     1       9.240   2.147   2.868  0.00  0.00    +0.000 A 
ATOM      9  S   UNL     1       8.984   0.691   1.877  0.00  0.00    +0.000 S 
ATOM     10  C   UNL     1       8.344   1.548   0.455  0.00  0.00    +0.000 A 
ATOM     11  C   UNL     1       9.129   1.493  -0.704  0.00  0.00    +0.000 A 
ATOM     12  C   UNL     1       8.661   2.040  -1.891  0.00  0.00    +0.000 A 
ATOM     13  C   UNL     1       7.422   2.671  -1.908  0.00  0.00    +0.000 A 
ATOM     14 CL   UNL     1       6.797   3.260  -3.398  0.00  0.00    +0.000 Cl
ATOM     15  C   UNL     1       6.673   2.808  -0.735  0.00  0.00    +0.000 A 
ATOM     16  C   UNL     1       7.122   2.250   0.476  0.00  0.00    +0.000 A 
ENDROOT
BRANCH   1  17
ATOM     17  O   UNL     1       4.906   2.270   1.578  0.00  0.00    +0.000 OA
BRANCH  17  18
ATOM     18  C   UNL     1       4.491   1.087   0.886  0.00  0.00    +0.000 C 
BRANCH  18  19
ATOM     19  C   UNL     1       2.959   1.053   0.820  0.00  0.00    +0.000 C 
BRANCH  19  21
ATOM     20  C   UNL     1       0.974  -0.077   0.061  0.00  0.00    +0.000 C 
ATOM     21  N   UNL     1       2.438  -0.078   0.027  0.00  0.00    +0.000 NA
ATOM     22  C   UNL     1       2.889  -0.015  -1.367  0.00  0.00    +0.000 C 
ENDBRANCH  19  21
ENDBRANCH  18  19
ENDBRANCH  17  18
ENDBRANCH   1  17
TORSDOF 4
