REMARK  Name = Zucapsaicin
REMARK  13 active torsions:
REMARK  status: ('A' for Active; 'I' for Inactive)
REMARK    1  A    between atoms: C_1  and  O_2
REMARK    2  A    between atoms: O_2  and  C_3
REMARK    3  A    between atoms: C_4  and  O_5
REMARK    4  A    between atoms: C_8  and  C_9
REMARK    5  A    between atoms: C_9  and  N_10
REMARK    6  A    between atoms: C_11  and  C_13
REMARK    7  A    between atoms: C_13  and  C_14
REMARK    8  A    between atoms: C_14  and  C_15
REMARK    9  A    between atoms: C_15  and  C_16
REMARK   10  A    between atoms: C_16  and  C_17
REMARK   11  A    between atoms: C_18  and  C_19
REMARK   12  A    between atoms: C_19  and  C_20
REMARK   13  A    between atoms: C_19  and  C_21
REMARK                            x       y       z     vdW  Elec       q    Type
REMARK                         _______ _______ _______ _____ _____    ______ ____
ROOT
ATOM      1  N   UNL     1       1.040   4.804   0.117  0.00  0.00    +0.000 N 
ATOM      2  C   UNL     1       0.288   5.947   0.127  0.00  0.00    +0.000 C 
ATOM      3  O   UNL     1       0.785   7.071   0.106  0.00  0.00    +0.000 OA
ATOM      4  H   UNL     1       0.542   3.931   0.134  0.00  0.00    +0.000 HD
ENDROOT
BRANCH   1   5
ATOM      5  C   UNL     1       2.492   4.847   0.084  0.00  0.00    +0.000 C 
BRANCH   5  10
ATOM      6  C   UNL     1       3.112   1.047   0.091  0.00  0.00    +0.000 A 
ATOM      7  C   UNL     1       4.506   1.020   0.077  0.00  0.00    +0.000 A 
ATOM      8  C   UNL     1       5.243   2.199   0.054  0.00  0.00    +0.000 A 
ATOM      9  C   UNL     1       4.583   3.433   0.050  0.00  0.00    +0.000 A 
ATOM     10  C   UNL     1       3.179   3.497   0.078  0.00  0.00    +0.000 A 
ATOM     11  C   UNL     1       2.470   2.285   0.100  0.00  0.00    +0.000 A 
BRANCH   6  13
ATOM     12  C   UNL     1       1.036  -0.104   0.081  0.00  0.00    +0.000 C 
ATOM     13  O   UNL     1       2.464  -0.163   0.096  0.00  0.00    +0.000 OA
ENDBRANCH   6  13
BRANCH   7  14
ATOM     14  O   UNL     1       5.186  -0.166   0.087  0.00  0.00    +0.000 OA
ATOM     15  H   UNL     1       4.502  -0.861   0.115  0.00  0.00    +0.000 HD
ENDBRANCH   7  14
ENDBRANCH   5  10
ENDBRANCH   1   5
BRANCH   2  16
ATOM     16  C   UNL     1      -1.206   5.682   0.168  0.00  0.00    +0.000 C 
BRANCH  16  17
ATOM     17  C   UNL     1      -1.971   6.991   0.190  0.00  0.00    +0.000 C 
BRANCH  17  18
ATOM     18  C   UNL     1      -3.477   6.756   0.256  0.00  0.00    +0.000 C 
BRANCH  18  19
ATOM     19  C   UNL     1      -4.165   8.104   0.252  0.00  0.00    +0.000 C 
BRANCH  19  20
ATOM     20  C   UNL     1      -5.660   8.036   0.261  0.00  0.00    +0.000 C 
ATOM     21  C   UNL     1      -6.437   9.133   0.237  0.00  0.00    +0.000 C 
BRANCH  21  22
ATOM     22  C   UNL     1      -5.909  10.553   0.192  0.00  0.00    +0.000 C 
ATOM     23  C   UNL     1      -5.114  10.852  -1.084  0.00  0.00    +0.000 C 
ATOM     24  C   UNL     1      -7.051  11.564   0.267  0.00  0.00    +0.000 C 
ENDBRANCH  21  22
ENDBRANCH  19  20
ENDBRANCH  18  19
ENDBRANCH  17  18
ENDBRANCH  16  17
ENDBRANCH   2  16
TORSDOF 10
