REMARK  Name = Zuclopenthixol
REMARK  6 active torsions:
REMARK  status: ('A' for Active; 'I' for Inactive)
REMARK    1  A    between atoms: O_1  and  C_2
REMARK    2  A    between atoms: C_2  and  C_3
REMARK    3  A    between atoms: C_3  and  N_4
REMARK    4  A    between atoms: N_7  and  C_8
REMARK    5  A    between atoms: C_8  and  C_9
REMARK    6  A    between atoms: C_9  and  C_10
REMARK                            x       y       z     vdW  Elec       q    Type
REMARK                         _______ _______ _______ _____ _____    ______ ____
ROOT
ATOM      1  C   UNL     1       8.357  -2.440   3.970  0.00  0.00    +0.000 C 
ATOM      2  C   UNL     1       9.046  -3.468   4.536  0.00  0.00    +0.000 C 
ATOM      3  C   UNL     1      10.539  -3.335   4.447  0.00  0.00    +0.000 A 
ATOM      4  C   UNL     1      11.373  -4.343   4.949  0.00  0.00    +0.000 A 
ATOM      5  S   UNL     1      10.828  -5.842   5.717  0.00  0.00    +0.000 S 
ATOM      6  C   UNL     1       9.064  -5.728   5.695  0.00  0.00    +0.000 A 
ATOM      7  C   UNL     1       8.333  -4.654   5.173  0.00  0.00    +0.000 A 
ATOM      8  C   UNL     1       6.928  -4.795   5.281  0.00  0.00    +0.000 A 
ATOM      9  C   UNL     1       6.274  -5.895   5.816  0.00  0.00    +0.000 A 
ATOM     10 CL   UNL     1       4.553  -5.920   5.828  0.00  0.00    +0.000 Cl
ATOM     11  C   UNL     1       7.013  -6.932   6.319  0.00  0.00    +0.000 A 
ATOM     12  C   UNL     1       8.401  -6.841   6.263  0.00  0.00    +0.000 A 
ATOM     13  C   UNL     1      12.769  -4.206   4.869  0.00  0.00    +0.000 A 
ATOM     14  C   UNL     1      13.358  -3.087   4.292  0.00  0.00    +0.000 A 
ATOM     15  C   UNL     1      12.557  -2.080   3.793  0.00  0.00    +0.000 A 
ATOM     16  C   UNL     1      11.176  -2.203   3.878  0.00  0.00    +0.000 A 
ENDROOT
BRANCH   1  17
ATOM     17  C   UNL     1       6.902  -2.309   3.909  0.00  0.00    +0.000 C 
BRANCH  17  18
ATOM     18  C   UNL     1       6.377  -1.122   3.175  0.00  0.00    +0.000 C 
BRANCH  18  22
ATOM     19  N   UNL     1       4.300  -1.289   0.264  0.00  0.00    +0.000 NA
ATOM     20  C   UNL     1       4.830  -0.087   0.950  0.00  0.00    +0.000 C 
ATOM     21  C   UNL     1       4.421  -0.027   2.444  0.00  0.00    +0.000 C 
ATOM     22  N   UNL     1       4.907  -1.203   3.177  0.00  0.00    +0.000 NA
ATOM     23  C   UNL     1       4.393  -2.436   2.511  0.00  0.00    +0.000 C 
ATOM     24  C   UNL     1       4.748  -2.499   1.002  0.00  0.00    +0.000 C 
BRANCH  19  25
ATOM     25  C   UNL     1       2.820  -1.273   0.215  0.00  0.00    +0.000 C 
BRANCH  25  26
ATOM     26  C   UNL     1       2.222   0.103  -0.091  0.00  0.00    +0.000 C 
BRANCH  26  27
ATOM     27  O   UNL     1       0.806   0.046  -0.092  0.00  0.00    +0.000 OA
ATOM     28  H   UNL     1       0.510   0.969  -0.172  0.00  0.00    +0.000 HD
ENDBRANCH  26  27
ENDBRANCH  25  26
ENDBRANCH  19  25
ENDBRANCH  18  22
ENDBRANCH  17  18
ENDBRANCH   1  17
TORSDOF 6
