REMARK  Name = Zytron
REMARK  8 active torsions:
REMARK  status: ('A' for Active; 'I' for Inactive)
REMARK    1  A    between atoms: C_1  and  O_2
REMARK    2  A    between atoms: O_2  and  P_3
REMARK    3  A    between atoms: P_3  and  N_5
REMARK    4  A    between atoms: P_3  and  O_9
REMARK    5  A    between atoms: N_5  and  C_6
REMARK    6  A    between atoms: C_6  and  C_7
REMARK    7  A    between atoms: C_6  and  C_8
REMARK    8  A    between atoms: O_9  and  C_10
REMARK                            x       y       z     vdW  Elec       q    Type
REMARK                         _______ _______ _______ _____ _____    ______ ____
ROOT
ATOM      1  P   UNL     1       3.051   1.367   0.845  0.00  0.00    +0.000 P 
ATOM      2  S   UNL     1       2.159   2.625  -0.467  0.00  0.00    +0.000 S 
ENDROOT
BRANCH   1   4
ATOM      3  C   UNL     1       1.069  -0.093  -0.356  0.00  0.00    +0.000 C 
ATOM      4  O   UNL     1       2.474  -0.061   0.057  0.00  0.00    +0.000 OA
ENDBRANCH   1   4
BRANCH   1   5
ATOM      5  N   UNL     1       2.238   0.700   2.206  0.00  0.00    +0.000 NA
ATOM      6  H   UNL     1       1.378   1.239   2.284  0.00  0.00    +0.000 HD
BRANCH   5   7
ATOM      7  C   UNL     1       1.844  -0.727   2.373  0.00  0.00    +0.000 C 
ATOM      8  C   UNL     1       2.900  -1.786   2.025  0.00  0.00    +0.000 C 
ATOM      9  C   UNL     1       1.188  -1.004   3.720  0.00  0.00    +0.000 C 
ENDBRANCH   5   7
ENDBRANCH   1   5
BRANCH   1  10
ATOM     10  O   UNL     1       3.627   2.795   1.633  0.00  0.00    +0.000 OA
BRANCH  10  11
ATOM     11  C   UNL     1       2.924   3.517   2.607  0.00  0.00    +0.000 A 
ATOM     12  C   UNL     1       2.305   2.934   3.721  0.00  0.00    +0.000 A 
ATOM     13  C   UNL     1       1.459   3.646   4.572  0.00  0.00    +0.000 A 
ATOM     14  C   UNL     1       1.380   5.027   4.434  0.00  0.00    +0.000 A 
ATOM     15 CL   UNL     1       0.453   5.925   5.568  0.00  0.00    +0.000 Cl
ATOM     16  C   UNL     1       2.102   5.660   3.432  0.00  0.00    +0.000 A 
ATOM     17  C   UNL     1       2.855   4.917   2.508  0.00  0.00    +0.000 A 
ATOM     18 CL   UNL     1       3.724   5.777   1.292  0.00  0.00    +0.000 Cl
ENDBRANCH  10  11
ENDBRANCH   1  10
TORSDOF 5
